/*---------------------------------------------------------------------------*\
  =========                 |
  \\      /  F ield         | OpenFOAM: The Open Source CFD Toolbox
   \\    /   O peration     | Website:  https://openfoam.org
    \\  /    A nd           | Version:  7
     \\/     M anipulation  |
\*---------------------------------------------------------------------------*/
Build  : 7-f1e51ce8d094
Exec   : simpleFoam -parallel
Date   : Nov 09 2019
Time   : 01:44:45
Host   : "dikshant-Lenovo-ideapad-Y700-15ISK"
PID    : 28843
I/O    : uncollated
Case   : /home/dikshant/Desktop/ThesisOF_1/OpenFoam_Cases/Channel_14124_M2
nProcs : 6
Slaves : 
5
(
"dikshant-Lenovo-ideapad-Y700-15ISK.28844"
"dikshant-Lenovo-ideapad-Y700-15ISK.28845"
"dikshant-Lenovo-ideapad-Y700-15ISK.28846"
"dikshant-Lenovo-ideapad-Y700-15ISK.28847"
"dikshant-Lenovo-ideapad-Y700-15ISK.28848"
)

Pstream initialized with:
    floatTransfer      : 0
    nProcsSimpleSum    : 0
    commsType          : nonBlocking
    polling iterations : 0
sigFpe : Enabling floating point exception trapping (FOAM_SIGFPE).
fileModificationChecking : Monitoring run-time modified files using timeStampMaster (fileModificationSkew 10)
allowSystemOperations : Allowing user-supplied system call operations

// * * * * * * * * * * * * * * * * * * * * * * * * * * * * * * * * * * * * * //
Create time

Create mesh for time = 0


SIMPLE: Convergence criteria found
        p: tolerance 1e-15

Reading field p

Reading field U

Reading/calculating face flux field phi

Selecting incompressible transport model Newtonian
Selecting turbulence model type RAS
Selecting RAS turbulence model kOmega
RAS
{
    RASModel        kOmega;
    turbulence      on;
    printCoeffs     on;
    betaStar        0.09;
    beta            0.072;
    gamma           0.52;
    alphaK          0.5;
    alphaOmega      0.5;
}

No MRF models present

Creating finite volume options from "constant/fvOptions"

Selecting finite volume options model type meanVelocityForce
    Source: momentumSource
    - selecting all cells
    - selected 24000 cell(s) with volume 2.4
    Initial pressure gradient = 0


Starting time loop

Time = 1

DILUPBiCG:  Solving for Ux, Initial residual = 1, Final residual = 0.00165176, No Iterations 1
DILUPBiCG:  Solving for Uy, Initial residual = 0.99993, Final residual = 0.00753855, No Iterations 1
DILUPBiCG:  Solving for Uz, Initial residual = 0.998566, Final residual = 0.0262913, No Iterations 1
Pressure gradient source: uncorrected Ubar = 0.141238, pressure gradient = 0.000237107
GAMG:  Solving for p, Initial residual = 1, Final residual = 0.00061135, No Iterations 11
time step continuity errors : sum local = 1.4476e-06, global = -3.89187e-19, cumulative = -3.89187e-19
Pressure gradient source: uncorrected Ubar = 0.141239, pressure gradient = 0.000121753
DILUPBiCG:  Solving for omega, Initial residual = 0.195256, Final residual = 0.000600964, No Iterations 1
DILUPBiCG:  Solving for k, Initial residual = 1, Final residual = 0.00500259, No Iterations 1
ExecutionTime = 0.19 s  ClockTime = 0 s

Time = 2

DILUPBiCG:  Solving for Ux, Initial residual = 0.526758, Final residual = 0.0113755, No Iterations 1
DILUPBiCG:  Solving for Uy, Initial residual = 0.391429, Final residual = 0.0129486, No Iterations 1
DILUPBiCG:  Solving for Uz, Initial residual = 0.181254, Final residual = 0.00575202, No Iterations 1
Pressure gradient source: uncorrected Ubar = 0.141139, pressure gradient = 0.00944612
GAMG:  Solving for p, Initial residual = 0.603362, Final residual = 0.000603147, No Iterations 69
time step continuity errors : sum local = 1.75204e-08, global = 1.22825e-19, cumulative = -2.66362e-19
Pressure gradient source: uncorrected Ubar = 0.141187, pressure gradient = 0.00498994
DILUPBiCG:  Solving for omega, Initial residual = 0.0204419, Final residual = 0.000164799, No Iterations 1
DILUPBiCG:  Solving for k, Initial residual = 0.19782, Final residual = 0.000500726, No Iterations 1
ExecutionTime = 0.44 s  ClockTime = 0 s

Time = 3

DILUPBiCG:  Solving for Ux, Initial residual = 0.0701634, Final residual = 0.00233343, No Iterations 1
DILUPBiCG:  Solving for Uy, Initial residual = 0.389306, Final residual = 0.0143538, No Iterations 1
DILUPBiCG:  Solving for Uz, Initial residual = 0.144536, Final residual = 0.00500459, No Iterations 1
Pressure gradient source: uncorrected Ubar = 0.141248, pressure gradient = 0.00428831
GAMG:  Solving for p, Initial residual = 0.427195, Final residual = 0.00041538, No Iterations 68
time step continuity errors : sum local = 7.35789e-09, global = -3.47422e-19, cumulative = -6.13784e-19
Pressure gradient source: uncorrected Ubar = 0.141247, pressure gradient = 0.00438362
DILUPBiCG:  Solving for omega, Initial residual = 0.00284692, Final residual = 5.56905e-05, No Iterations 1
DILUPBiCG:  Solving for k, Initial residual = 0.17664, Final residual = 0.000581713, No Iterations 1
ExecutionTime = 0.69 s  ClockTime = 0 s

Time = 4

DILUPBiCG:  Solving for Ux, Initial residual = 0.034033, Final residual = 0.00117941, No Iterations 1
DILUPBiCG:  Solving for Uy, Initial residual = 0.203461, Final residual = 0.00739729, No Iterations 1
DILUPBiCG:  Solving for Uz, Initial residual = 0.114096, Final residual = 0.00412733, No Iterations 1
Pressure gradient source: uncorrected Ubar = 0.141245, pressure gradient = 0.00388977
GAMG:  Solving for p, Initial residual = 0.276504, Final residual = 0.000266011, No Iterations 64
time step continuity errors : sum local = 3.74843e-09, global = 1.94163e-19, cumulative = -4.19621e-19
Pressure gradient source: uncorrected Ubar = 0.141245, pressure gradient = 0.00396886
DILUPBiCG:  Solving for omega, Initial residual = 0.0011206, Final residual = 2.9053e-05, No Iterations 1
DILUPBiCG:  Solving for k, Initial residual = 0.1488, Final residual = 0.0006983, No Iterations 1
ExecutionTime = 0.92 s  ClockTime = 0 s

Time = 5

DILUPBiCG:  Solving for Ux, Initial residual = 0.0215809, Final residual = 0.00072726, No Iterations 1
DILUPBiCG:  Solving for Uy, Initial residual = 0.136421, Final residual = 0.00421575, No Iterations 1
DILUPBiCG:  Solving for Uz, Initial residual = 0.0956842, Final residual = 0.00341045, No Iterations 1
Pressure gradient source: uncorrected Ubar = 0.141247, pressure gradient = 0.00335099
GAMG:  Solving for p, Initial residual = 0.176529, Final residual = 0.000174769, No Iterations 66
time step continuity errors : sum local = 2.05394e-09, global = -6.29519e-19, cumulative = -1.04914e-18
Pressure gradient source: uncorrected Ubar = 0.141245, pressure gradient = 0.00351237
DILUPBiCG:  Solving for omega, Initial residual = 0.000519638, Final residual = 1.57895e-05, No Iterations 1
DILUPBiCG:  Solving for k, Initial residual = 0.117806, Final residual = 0.000874369, No Iterations 1
ExecutionTime = 1.17 s  ClockTime = 1 s

Time = 6

DILUPBiCG:  Solving for Ux, Initial residual = 0.0151122, Final residual = 0.000490097, No Iterations 1
DILUPBiCG:  Solving for Uy, Initial residual = 0.102243, Final residual = 0.00306689, No Iterations 1
DILUPBiCG:  Solving for Uz, Initial residual = 0.0818046, Final residual = 0.00285747, No Iterations 1
Pressure gradient source: uncorrected Ubar = 0.141246, pressure gradient = 0.00294852
GAMG:  Solving for p, Initial residual = 0.138187, Final residual = 0.000135874, No Iterations 64
time step continuity errors : sum local = 1.39242e-09, global = -1.48626e-18, cumulative = -2.5354e-18
Pressure gradient source: uncorrected Ubar = 0.141245, pressure gradient = 0.00310883
DILUPBiCG:  Solving for omega, Initial residual = 0.000231305, Final residual = 8.0517e-06, No Iterations 1
DILUPBiCG:  Solving for k, Initial residual = 0.0892311, Final residual = 0.00111813, No Iterations 1
ExecutionTime = 1.41 s  ClockTime = 1 s

Time = 7

DILUPBiCG:  Solving for Ux, Initial residual = 0.0113304, Final residual = 0.000354575, No Iterations 1
DILUPBiCG:  Solving for Uy, Initial residual = 0.0813828, Final residual = 0.00254858, No Iterations 1
DILUPBiCG:  Solving for Uz, Initial residual = 0.0714444, Final residual = 0.0024632, No Iterations 1
Pressure gradient source: uncorrected Ubar = 0.141245, pressure gradient = 0.00265961
GAMG:  Solving for p, Initial residual = 0.119188, Final residual = 0.000115229, No Iterations 61
time step continuity errors : sum local = 1.06561e-09, global = 9.46028e-19, cumulative = -1.58937e-18
Pressure gradient source: uncorrected Ubar = 0.141244, pressure gradient = 0.00278504
DILUPBiCG:  Solving for omega, Initial residual = 0.00010921, Final residual = 4.51356e-06, No Iterations 1
DILUPBiCG:  Solving for k, Initial residual = 0.0640093, Final residual = 0.00147592, No Iterations 1
ExecutionTime = 1.64 s  ClockTime = 1 s

Time = 8

DILUPBiCG:  Solving for Ux, Initial residual = 0.00894936, Final residual = 0.000274701, No Iterations 1
DILUPBiCG:  Solving for Uy, Initial residual = 0.0673493, Final residual = 0.00210854, No Iterations 1
DILUPBiCG:  Solving for Uz, Initial residual = 0.0641802, Final residual = 0.00229719, No Iterations 1
Pressure gradient source: uncorrected Ubar = 0.141244, pressure gradient = 0.00244147
GAMG:  Solving for p, Initial residual = 0.101283, Final residual = 9.63345e-05, No Iterations 62
time step continuity errors : sum local = 8.19467e-10, global = -4.11136e-19, cumulative = -2.0005e-18
Pressure gradient source: uncorrected Ubar = 0.141243, pressure gradient = 0.00253151
DILUPBiCG:  Solving for omega, Initial residual = 6.58052e-05, Final residual = 3.38604e-06, No Iterations 1
DILUPBiCG:  Solving for k, Initial residual = 0.0441224, Final residual = 0.00159912, No Iterations 1
ExecutionTime = 1.87 s  ClockTime = 1 s

Time = 9

DILUPBiCG:  Solving for Ux, Initial residual = 0.00736824, Final residual = 0.000225845, No Iterations 1
DILUPBiCG:  Solving for Uy, Initial residual = 0.0569545, Final residual = 0.00169875, No Iterations 1
DILUPBiCG:  Solving for Uz, Initial residual = 0.0572068, Final residual = 0.00192, No Iterations 1
Pressure gradient source: uncorrected Ubar = 0.141243, pressure gradient = 0.00226929
GAMG:  Solving for p, Initial residual = 0.08463, Final residual = 8.34246e-05, No Iterations 64
time step continuity errors : sum local = 6.61052e-10, global = -5.80655e-19, cumulative = -2.58116e-18
Pressure gradient source: uncorrected Ubar = 0.141242, pressure gradient = 0.00233181
DILUPBiCG:  Solving for omega, Initial residual = 5.33626e-05, Final residual = 2.53748e-06, No Iterations 1
DILUPBiCG:  Solving for k, Initial residual = 0.0344295, Final residual = 0.00158961, No Iterations 1
ExecutionTime = 2.11 s  ClockTime = 2 s

Time = 10

DILUPBiCG:  Solving for Ux, Initial residual = 0.00625604, Final residual = 0.000191777, No Iterations 1
DILUPBiCG:  Solving for Uy, Initial residual = 0.0488633, Final residual = 0.00143859, No Iterations 1
DILUPBiCG:  Solving for Uz, Initial residual = 0.0515442, Final residual = 0.00180024, No Iterations 1
Pressure gradient source: uncorrected Ubar = 0.141242, pressure gradient = 0.00212844
GAMG:  Solving for p, Initial residual = 0.0729009, Final residual = 7.23963e-05, No Iterations 66
time step continuity errors : sum local = 5.38846e-10, global = -8.91906e-20, cumulative = -2.67035e-18
Pressure gradient source: uncorrected Ubar = 0.141242, pressure gradient = 0.00217145
DILUPBiCG:  Solving for omega, Initial residual = 4.94057e-05, Final residual = 1.93903e-06, No Iterations 1
DILUPBiCG:  Solving for k, Initial residual = 0.0335685, Final residual = 0.00170008, No Iterations 1
ExecutionTime = 2.36 s  ClockTime = 2 s

Time = 11

DILUPBiCG:  Solving for Ux, Initial residual = 0.00543928, Final residual = 0.000166917, No Iterations 1
DILUPBiCG:  Solving for Uy, Initial residual = 0.0424669, Final residual = 0.00131082, No Iterations 1
DILUPBiCG:  Solving for Uz, Initial residual = 0.0458763, Final residual = 0.00150598, No Iterations 1
Pressure gradient source: uncorrected Ubar = 0.141242, pressure gradient = 0.00200977
GAMG:  Solving for p, Initial residual = 0.0658758, Final residual = 6.38231e-05, No Iterations 67
time step continuity errors : sum local = 4.47999e-10, global = -1.88965e-19, cumulative = -2.85932e-18
Pressure gradient source: uncorrected Ubar = 0.141242, pressure gradient = 0.00203947
DILUPBiCG:  Solving for omega, Initial residual = 4.65512e-05, Final residual = 1.72491e-06, No Iterations 1
DILUPBiCG:  Solving for k, Initial residual = 0.0312026, Final residual = 0.00155471, No Iterations 1
ExecutionTime = 2.6 s  ClockTime = 2 s

Time = 12

DILUPBiCG:  Solving for Ux, Initial residual = 0.00481865, Final residual = 0.00014804, No Iterations 1
DILUPBiCG:  Solving for Uy, Initial residual = 0.0373335, Final residual = 0.00126585, No Iterations 1
DILUPBiCG:  Solving for Uz, Initial residual = 0.042897, Final residual = 0.00148475, No Iterations 1
Pressure gradient source: uncorrected Ubar = 0.141242, pressure gradient = 0.00190809
GAMG:  Solving for p, Initial residual = 0.0596145, Final residual = 5.83295e-05, No Iterations 67
time step continuity errors : sum local = 3.86894e-10, global = -2.027e-18, cumulative = -4.88632e-18
Pressure gradient source: uncorrected Ubar = 0.141241, pressure gradient = 0.00192849
DILUPBiCG:  Solving for omega, Initial residual = 4.28895e-05, Final residual = 1.65529e-06, No Iterations 1
DILUPBiCG:  Solving for k, Initial residual = 0.0139228, Final residual = 0.000679069, No Iterations 1
ExecutionTime = 2.85 s  ClockTime = 2 s

Time = 13

DILUPBiCG:  Solving for Ux, Initial residual = 0.00432933, Final residual = 0.000133337, No Iterations 1
DILUPBiCG:  Solving for Uy, Initial residual = 0.0331558, Final residual = 0.0012493, No Iterations 1
DILUPBiCG:  Solving for Uz, Initial residual = 0.0395229, Final residual = 0.00126778, No Iterations 1
Pressure gradient source: uncorrected Ubar = 0.141241, pressure gradient = 0.00181979
GAMG:  Solving for p, Initial residual = 0.0537211, Final residual = 5.26777e-05, No Iterations 67
time step continuity errors : sum local = 3.32078e-10, global = -1.04245e-18, cumulative = -5.92876e-18
Pressure gradient source: uncorrected Ubar = 0.141241, pressure gradient = 0.00183348
DILUPBiCG:  Solving for omega, Initial residual = 4.00343e-05, Final residual = 1.72068e-06, No Iterations 1
DILUPBiCG:  Solving for k, Initial residual = 0.00824821, Final residual = 0.000389923, No Iterations 1
ExecutionTime = 3.1 s  ClockTime = 3 s

Time = 14

DILUPBiCG:  Solving for Ux, Initial residual = 0.00393336, Final residual = 0.000121883, No Iterations 1
DILUPBiCG:  Solving for Uy, Initial residual = 0.0297121, Final residual = 0.00121962, No Iterations 1
DILUPBiCG:  Solving for Uz, Initial residual = 0.0367397, Final residual = 0.00122839, No Iterations 1
Pressure gradient source: uncorrected Ubar = 0.141241, pressure gradient = 0.00174218
GAMG:  Solving for p, Initial residual = 0.0480653, Final residual = 4.78674e-05, No Iterations 67
time step continuity errors : sum local = 2.89074e-10, global = -9.12032e-19, cumulative = -6.84079e-18
Pressure gradient source: uncorrected Ubar = 0.141241, pressure gradient = 0.00175091
DILUPBiCG:  Solving for omega, Initial residual = 3.73728e-05, Final residual = 1.76615e-06, No Iterations 1
DILUPBiCG:  Solving for k, Initial residual = 0.00561147, Final residual = 0.000259038, No Iterations 1
ExecutionTime = 3.35 s  ClockTime = 3 s

Time = 15

DILUPBiCG:  Solving for Ux, Initial residual = 0.00360832, Final residual = 0.000112316, No Iterations 1
DILUPBiCG:  Solving for Uy, Initial residual = 0.0268388, Final residual = 0.00116949, No Iterations 1
DILUPBiCG:  Solving for Uz, Initial residual = 0.0350812, Final residual = 0.00120362, No Iterations 1
Pressure gradient source: uncorrected Ubar = 0.141241, pressure gradient = 0.00167323
GAMG:  Solving for p, Initial residual = 0.0431535, Final residual = 4.06568e-05, No Iterations 68
time step continuity errors : sum local = 2.36742e-10, global = 8.37406e-19, cumulative = -6.00339e-18
Pressure gradient source: uncorrected Ubar = 0.141241, pressure gradient = 0.00167822
DILUPBiCG:  Solving for omega, Initial residual = 3.6526e-05, Final residual = 1.76654e-06, No Iterations 1
DILUPBiCG:  Solving for k, Initial residual = 0.00415246, Final residual = 0.000186861, No Iterations 1
ExecutionTime = 3.6 s  ClockTime = 3 s

Time = 16

DILUPBiCG:  Solving for Ux, Initial residual = 0.00333533, Final residual = 0.000104219, No Iterations 1
DILUPBiCG:  Solving for Uy, Initial residual = 0.0244098, Final residual = 0.00110492, No Iterations 1
DILUPBiCG:  Solving for Uz, Initial residual = 0.0339491, Final residual = 0.00111748, No Iterations 1
Pressure gradient source: uncorrected Ubar = 0.141241, pressure gradient = 0.00161139
GAMG:  Solving for p, Initial residual = 0.0390266, Final residual = 3.75401e-05, No Iterations 68
time step continuity errors : sum local = 2.1157e-10, global = -2.05316e-18, cumulative = -8.05654e-18
Pressure gradient source: uncorrected Ubar = 0.141241, pressure gradient = 0.00161352
DILUPBiCG:  Solving for omega, Initial residual = 3.59927e-05, Final residual = 1.72694e-06, No Iterations 1
DILUPBiCG:  Solving for k, Initial residual = 0.00325435, Final residual = 0.000141876, No Iterations 1
ExecutionTime = 3.85 s  ClockTime = 3 s

Time = 17

DILUPBiCG:  Solving for Ux, Initial residual = 0.00310239, Final residual = 9.7261e-05, No Iterations 1
DILUPBiCG:  Solving for Uy, Initial residual = 0.0223521, Final residual = 0.00103552, No Iterations 1
DILUPBiCG:  Solving for Uz, Initial residual = 0.0321745, Final residual = 0.00108349, No Iterations 1
Pressure gradient source: uncorrected Ubar = 0.141241, pressure gradient = 0.00155547
GAMG:  Solving for p, Initial residual = 0.0361036, Final residual = 3.38842e-05, No Iterations 69
time step continuity errors : sum local = 1.85151e-10, global = 1.18158e-18, cumulative = -6.87497e-18
Pressure gradient source: uncorrected Ubar = 0.141241, pressure gradient = 0.00155538
DILUPBiCG:  Solving for omega, Initial residual = 3.5016e-05, Final residual = 1.74832e-06, No Iterations 1
DILUPBiCG:  Solving for k, Initial residual = 0.00265948, Final residual = 0.000113443, No Iterations 1
ExecutionTime = 4.1 s  ClockTime = 4 s

Time = 18

DILUPBiCG:  Solving for Ux, Initial residual = 0.00290126, Final residual = 9.12175e-05, No Iterations 1
DILUPBiCG:  Solving for Uy, Initial residual = 0.0205798, Final residual = 0.000968619, No Iterations 1
DILUPBiCG:  Solving for Uz, Initial residual = 0.0308396, Final residual = 0.0010415, No Iterations 1
Pressure gradient source: uncorrected Ubar = 0.141241, pressure gradient = 0.00150454
GAMG:  Solving for p, Initial residual = 0.0341049, Final residual = 3.31964e-05, No Iterations 69
time step continuity errors : sum local = 1.76025e-10, global = -1.71699e-18, cumulative = -8.59196e-18
Pressure gradient source: uncorrected Ubar = 0.141241, pressure gradient = 0.00150271
DILUPBiCG:  Solving for omega, Initial residual = 3.37978e-05, Final residual = 1.76346e-06, No Iterations 1
DILUPBiCG:  Solving for k, Initial residual = 0.00224469, Final residual = 9.48362e-05, No Iterations 1
ExecutionTime = 4.36 s  ClockTime = 4 s

Time = 19

DILUPBiCG:  Solving for Ux, Initial residual = 0.00272681, Final residual = 8.59283e-05, No Iterations 1
DILUPBiCG:  Solving for Uy, Initial residual = 0.019044, Final residual = 0.000908822, No Iterations 1
DILUPBiCG:  Solving for Uz, Initial residual = 0.0302239, Final residual = 0.00101005, No Iterations 1
Pressure gradient source: uncorrected Ubar = 0.141241, pressure gradient = 0.00145787
GAMG:  Solving for p, Initial residual = 0.0326988, Final residual = 3.07106e-05, No Iterations 70
time step continuity errors : sum local = 1.58117e-10, global = -5.11397e-19, cumulative = -9.10336e-18
Pressure gradient source: uncorrected Ubar = 0.141241, pressure gradient = 0.00145466
DILUPBiCG:  Solving for omega, Initial residual = 3.24658e-05, Final residual = 1.75152e-06, No Iterations 1
DILUPBiCG:  Solving for k, Initial residual = 0.00194367, Final residual = 8.21403e-05, No Iterations 1
ExecutionTime = 4.63 s  ClockTime = 4 s

Time = 20

DILUPBiCG:  Solving for Ux, Initial residual = 0.00257305, Final residual = 8.12511e-05, No Iterations 1
DILUPBiCG:  Solving for Uy, Initial residual = 0.0177012, Final residual = 0.000858316, No Iterations 1
DILUPBiCG:  Solving for Uz, Initial residual = 0.0289484, Final residual = 0.000994751, No Iterations 1
Pressure gradient source: uncorrected Ubar = 0.14124, pressure gradient = 0.00141487
GAMG:  Solving for p, Initial residual = 0.0314567, Final residual = 3.0285e-05, No Iterations 70
time step continuity errors : sum local = 1.51418e-10, global = -1.0762e-18, cumulative = -1.01796e-17
Pressure gradient source: uncorrected Ubar = 0.141241, pressure gradient = 0.00141055
DILUPBiCG:  Solving for omega, Initial residual = 3.11007e-05, Final residual = 1.72091e-06, No Iterations 1
DILUPBiCG:  Solving for k, Initial residual = 0.00171795, Final residual = 7.35661e-05, No Iterations 1
ExecutionTime = 4.9 s  ClockTime = 4 s

Time = 21

DILUPBiCG:  Solving for Ux, Initial residual = 0.00243626, Final residual = 7.7122e-05, No Iterations 1
DILUPBiCG:  Solving for Uy, Initial residual = 0.0165296, Final residual = 0.000817048, No Iterations 1
DILUPBiCG:  Solving for Uz, Initial residual = 0.0283259, Final residual = 0.000950255, No Iterations 1
Pressure gradient source: uncorrected Ubar = 0.14124, pressure gradient = 0.00137507
GAMG:  Solving for p, Initial residual = 0.0304403, Final residual = 2.9905e-05, No Iterations 70
time step continuity errors : sum local = 1.45163e-10, global = -1.27121e-19, cumulative = -1.03067e-17
Pressure gradient source: uncorrected Ubar = 0.14124, pressure gradient = 0.00136984
DILUPBiCG:  Solving for omega, Initial residual = 2.97512e-05, Final residual = 1.67837e-06, No Iterations 1
DILUPBiCG:  Solving for k, Initial residual = 0.00154426, Final residual = 6.74834e-05, No Iterations 1
ExecutionTime = 5.16 s  ClockTime = 5 s

Time = 22

DILUPBiCG:  Solving for Ux, Initial residual = 0.00231377, Final residual = 7.34574e-05, No Iterations 1
DILUPBiCG:  Solving for Uy, Initial residual = 0.0154987, Final residual = 0.000783738, No Iterations 1
DILUPBiCG:  Solving for Uz, Initial residual = 0.027472, Final residual = 0.00090432, No Iterations 1
Pressure gradient source: uncorrected Ubar = 0.14124, pressure gradient = 0.00133807
GAMG:  Solving for p, Initial residual = 0.0294839, Final residual = 2.93227e-05, No Iterations 70
time step continuity errors : sum local = 1.38226e-10, global = -1.24242e-18, cumulative = -1.15491e-17
Pressure gradient source: uncorrected Ubar = 0.14124, pressure gradient = 0.0013321
DILUPBiCG:  Solving for omega, Initial residual = 2.84466e-05, Final residual = 1.62922e-06, No Iterations 1
DILUPBiCG:  Solving for k, Initial residual = 0.00140771, Final residual = 6.28901e-05, No Iterations 1
ExecutionTime = 5.41 s  ClockTime = 5 s

Time = 23

DILUPBiCG:  Solving for Ux, Initial residual = 0.00220397, Final residual = 7.01412e-05, No Iterations 1
DILUPBiCG:  Solving for Uy, Initial residual = 0.0145796, Final residual = 0.000758011, No Iterations 1
DILUPBiCG:  Solving for Uz, Initial residual = 0.0263634, Final residual = 0.000860876, No Iterations 1
Pressure gradient source: uncorrected Ubar = 0.14124, pressure gradient = 0.00130354
GAMG:  Solving for p, Initial residual = 0.0285157, Final residual = 2.81918e-05, No Iterations 70
time step continuity errors : sum local = 1.291e-10, global = -1.54515e-18, cumulative = -1.30942e-17
Pressure gradient source: uncorrected Ubar = 0.14124, pressure gradient = 0.00129698
DILUPBiCG:  Solving for omega, Initial residual = 2.72019e-05, Final residual = 1.60014e-06, No Iterations 1
DILUPBiCG:  Solving for k, Initial residual = 0.00129849, Final residual = 5.96789e-05, No Iterations 1
ExecutionTime = 5.67 s  ClockTime = 5 s

Time = 24

DILUPBiCG:  Solving for Ux, Initial residual = 0.00210496, Final residual = 6.71264e-05, No Iterations 1
DILUPBiCG:  Solving for Uy, Initial residual = 0.013768, Final residual = 0.000738341, No Iterations 1
DILUPBiCG:  Solving for Uz, Initial residual = 0.0256239, Final residual = 0.000823958, No Iterations 1
Pressure gradient source: uncorrected Ubar = 0.14124, pressure gradient = 0.00127122
GAMG:  Solving for p, Initial residual = 0.0274829, Final residual = 2.65745e-05, No Iterations 70
time step continuity errors : sum local = 1.18273e-10, global = -1.31788e-18, cumulative = -1.44121e-17
Pressure gradient source: uncorrected Ubar = 0.14124, pressure gradient = 0.00126416
DILUPBiCG:  Solving for omega, Initial residual = 2.62407e-05, Final residual = 1.56479e-06, No Iterations 1
DILUPBiCG:  Solving for k, Initial residual = 0.00121026, Final residual = 5.73272e-05, No Iterations 1
ExecutionTime = 5.93 s  ClockTime = 5 s

Time = 25

DILUPBiCG:  Solving for Ux, Initial residual = 0.0020148, Final residual = 6.43678e-05, No Iterations 1
DILUPBiCG:  Solving for Uy, Initial residual = 0.0130372, Final residual = 0.000723326, No Iterations 1
DILUPBiCG:  Solving for Uz, Initial residual = 0.0250608, Final residual = 0.000819575, No Iterations 1
Pressure gradient source: uncorrected Ubar = 0.14124, pressure gradient = 0.00124088
GAMG:  Solving for p, Initial residual = 0.0263914, Final residual = 2.61911e-05, No Iterations 69
time step continuity errors : sum local = 1.1341e-10, global = 1.04654e-18, cumulative = -1.33656e-17
Pressure gradient source: uncorrected Ubar = 0.14124, pressure gradient = 0.00123341
DILUPBiCG:  Solving for omega, Initial residual = 2.5541e-05, Final residual = 1.52542e-06, No Iterations 1
DILUPBiCG:  Solving for k, Initial residual = 0.00113747, Final residual = 5.54616e-05, No Iterations 1
ExecutionTime = 6.18 s  ClockTime = 6 s

Time = 26

DILUPBiCG:  Solving for Ux, Initial residual = 0.0019323, Final residual = 6.18355e-05, No Iterations 1
DILUPBiCG:  Solving for Uy, Initial residual = 0.0123682, Final residual = 0.000712515, No Iterations 1
DILUPBiCG:  Solving for Uz, Initial residual = 0.0244004, Final residual = 0.000799044, No Iterations 1
Pressure gradient source: uncorrected Ubar = 0.14124, pressure gradient = 0.00121231
GAMG:  Solving for p, Initial residual = 0.0253682, Final residual = 2.36952e-05, No Iterations 69
time step continuity errors : sum local = 9.99056e-11, global = -3.27809e-20, cumulative = -1.33984e-17
Pressure gradient source: uncorrected Ubar = 0.14124, pressure gradient = 0.0012045
DILUPBiCG:  Solving for omega, Initial residual = 2.48326e-05, Final residual = 1.48338e-06, No Iterations 1
DILUPBiCG:  Solving for k, Initial residual = 0.00107672, Final residual = 5.39936e-05, No Iterations 1
ExecutionTime = 6.45 s  ClockTime = 6 s

Time = 27

DILUPBiCG:  Solving for Ux, Initial residual = 0.00185645, Final residual = 5.95096e-05, No Iterations 1
DILUPBiCG:  Solving for Uy, Initial residual = 0.0117521, Final residual = 0.000706109, No Iterations 1
DILUPBiCG:  Solving for Uz, Initial residual = 0.0243166, Final residual = 0.000836169, No Iterations 1
Pressure gradient source: uncorrected Ubar = 0.14124, pressure gradient = 0.00118535
GAMG:  Solving for p, Initial residual = 0.0243082, Final residual = 2.30557e-05, No Iterations 68
time step continuity errors : sum local = 9.4767e-11, global = -3.75508e-19, cumulative = -1.37739e-17
Pressure gradient source: uncorrected Ubar = 0.14124, pressure gradient = 0.00117726
DILUPBiCG:  Solving for omega, Initial residual = 2.41243e-05, Final residual = 1.43994e-06, No Iterations 1
DILUPBiCG:  Solving for k, Initial residual = 0.00102483, Final residual = 5.26821e-05, No Iterations 1
ExecutionTime = 6.71 s  ClockTime = 6 s

Time = 28

DILUPBiCG:  Solving for Ux, Initial residual = 0.00178684, Final residual = 5.73573e-05, No Iterations 1
DILUPBiCG:  Solving for Uy, Initial residual = 0.0111843, Final residual = 0.000704683, No Iterations 1
DILUPBiCG:  Solving for Uz, Initial residual = 0.0237862, Final residual = 0.000777928, No Iterations 1
Pressure gradient source: uncorrected Ubar = 0.14124, pressure gradient = 0.00115985
GAMG:  Solving for p, Initial residual = 0.0233545, Final residual = 2.23168e-05, No Iterations 67
time step continuity errors : sum local = 8.95118e-11, global = -2.08595e-18, cumulative = -1.58598e-17
Pressure gradient source: uncorrected Ubar = 0.14124, pressure gradient = 0.00115153
DILUPBiCG:  Solving for omega, Initial residual = 2.34244e-05, Final residual = 1.39608e-06, No Iterations 1
DILUPBiCG:  Solving for k, Initial residual = 0.000979788, Final residual = 5.16146e-05, No Iterations 1
ExecutionTime = 6.96 s  ClockTime = 7 s

Time = 29

DILUPBiCG:  Solving for Ux, Initial residual = 0.0017228, Final residual = 5.53611e-05, No Iterations 1
DILUPBiCG:  Solving for Uy, Initial residual = 0.0106586, Final residual = 0.000709241, No Iterations 1
DILUPBiCG:  Solving for Uz, Initial residual = 0.0230243, Final residual = 0.000746879, No Iterations 1
Pressure gradient source: uncorrected Ubar = 0.14124, pressure gradient = 0.00113569
GAMG:  Solving for p, Initial residual = 0.0224787, Final residual = 2.16965e-05, No Iterations 66
time step continuity errors : sum local = 8.49876e-11, global = -6.25882e-19, cumulative = -1.64857e-17
Pressure gradient source: uncorrected Ubar = 0.14124, pressure gradient = 0.00112718
DILUPBiCG:  Solving for omega, Initial residual = 2.27385e-05, Final residual = 1.35253e-06, No Iterations 1
DILUPBiCG:  Solving for k, Initial residual = 0.000940213, Final residual = 5.07259e-05, No Iterations 1
ExecutionTime = 7.21 s  ClockTime = 7 s

Time = 30

DILUPBiCG:  Solving for Ux, Initial residual = 0.00166338, Final residual = 5.35125e-05, No Iterations 1
DILUPBiCG:  Solving for Uy, Initial residual = 0.010174, Final residual = 0.000721481, No Iterations 1
DILUPBiCG:  Solving for Uz, Initial residual = 0.0223216, Final residual = 0.000709398, No Iterations 1
Pressure gradient source: uncorrected Ubar = 0.14124, pressure gradient = 0.00111275
GAMG:  Solving for p, Initial residual = 0.0216835, Final residual = 2.11982e-05, No Iterations 65
time step continuity errors : sum local = 8.11905e-11, global = 7.15759e-19, cumulative = -1.577e-17
Pressure gradient source: uncorrected Ubar = 0.14124, pressure gradient = 0.00110408
DILUPBiCG:  Solving for omega, Initial residual = 2.20706e-05, Final residual = 1.32239e-06, No Iterations 1
DILUPBiCG:  Solving for k, Initial residual = 0.000905059, Final residual = 4.99102e-05, No Iterations 1
ExecutionTime = 7.46 s  ClockTime = 7 s

Time = 31

DILUPBiCG:  Solving for Ux, Initial residual = 0.00160807, Final residual = 5.17889e-05, No Iterations 1
DILUPBiCG:  Solving for Uy, Initial residual = 0.00972659, Final residual = 0.000743884, No Iterations 1
DILUPBiCG:  Solving for Uz, Initial residual = 0.0218818, Final residual = 0.000696422, No Iterations 1
Pressure gradient source: uncorrected Ubar = 0.14124, pressure gradient = 0.00109093
GAMG:  Solving for p, Initial residual = 0.0209643, Final residual = 2.0827e-05, No Iterations 64
time step continuity errors : sum local = 7.80266e-11, global = -5.50471e-19, cumulative = -1.63204e-17
Pressure gradient source: uncorrected Ubar = 0.14124, pressure gradient = 0.00108214
DILUPBiCG:  Solving for omega, Initial residual = 2.1423e-05, Final residual = 1.29998e-06, No Iterations 1
DILUPBiCG:  Solving for k, Initial residual = 0.000873565, Final residual = 4.91703e-05, No Iterations 1
ExecutionTime = 7.7 s  ClockTime = 7 s

Time = 32

DILUPBiCG:  Solving for Ux, Initial residual = 0.00155645, Final residual = 5.01891e-05, No Iterations 1
DILUPBiCG:  Solving for Uy, Initial residual = 0.00931067, Final residual = 0.000779951, No Iterations 1
DILUPBiCG:  Solving for Uz, Initial residual = 0.0215814, Final residual = 0.000695782, No Iterations 1
Pressure gradient source: uncorrected Ubar = 0.14124, pressure gradient = 0.00107015
GAMG:  Solving for p, Initial residual = 0.0202997, Final residual = 1.91525e-05, No Iterations 64
time step continuity errors : sum local = 7.02243e-11, global = -7.52259e-19, cumulative = -1.70727e-17
Pressure gradient source: uncorrected Ubar = 0.14124, pressure gradient = 0.00106126
DILUPBiCG:  Solving for omega, Initial residual = 2.07973e-05, Final residual = 1.27621e-06, No Iterations 1
DILUPBiCG:  Solving for k, Initial residual = 0.000845132, Final residual = 4.84575e-05, No Iterations 1
ExecutionTime = 7.96 s  ClockTime = 8 s

Time = 33

DILUPBiCG:  Solving for Ux, Initial residual = 0.0015082, Final residual = 4.87027e-05, No Iterations 1
DILUPBiCG:  Solving for Uy, Initial residual = 0.00892222, Final residual = 0.000836919, No Iterations 1
DILUPBiCG:  Solving for Uz, Initial residual = 0.0208569, Final residual = 0.000672115, No Iterations 1
Pressure gradient source: uncorrected Ubar = 0.14124, pressure gradient = 0.00105032
GAMG:  Solving for p, Initial residual = 0.0197158, Final residual = 1.83056e-05, No Iterations 64
time step continuity errors : sum local = 6.57259e-11, global = 5.95737e-19, cumulative = -1.64769e-17
Pressure gradient source: uncorrected Ubar = 0.14124, pressure gradient = 0.00104135
DILUPBiCG:  Solving for omega, Initial residual = 2.01942e-05, Final residual = 1.25149e-06, No Iterations 1
DILUPBiCG:  Solving for k, Initial residual = 0.000819276, Final residual = 4.79104e-05, No Iterations 1
ExecutionTime = 8.2 s  ClockTime = 8 s

Time = 34

DILUPBiCG:  Solving for Ux, Initial residual = 0.00146334, Final residual = 4.73103e-05, No Iterations 1
DILUPBiCG:  Solving for Uy, Initial residual = 0.00855653, Final residual = 0.000280603, No Iterations 2
DILUPBiCG:  Solving for Uz, Initial residual = 0.020575, Final residual = 0.000650514, No Iterations 1
Pressure gradient source: uncorrected Ubar = 0.14124, pressure gradient = 0.00103138
GAMG:  Solving for p, Initial residual = 0.020953, Final residual = 2.07071e-05, No Iterations 61
time step continuity errors : sum local = 7.27553e-11, global = -4.22932e-19, cumulative = -1.68999e-17
Pressure gradient source: uncorrected Ubar = 0.14124, pressure gradient = 0.00102235
DILUPBiCG:  Solving for omega, Initial residual = 1.96139e-05, Final residual = 1.22618e-06, No Iterations 1
DILUPBiCG:  Solving for k, Initial residual = 0.000795646, Final residual = 4.73845e-05, No Iterations 1
ExecutionTime = 8.44 s  ClockTime = 8 s

Time = 35

DILUPBiCG:  Solving for Ux, Initial residual = 0.0014213, Final residual = 4.60004e-05, No Iterations 1
DILUPBiCG:  Solving for Uy, Initial residual = 0.00838856, Final residual = 0.000434657, No Iterations 2
DILUPBiCG:  Solving for Uz, Initial residual = 0.0201576, Final residual = 0.000643532, No Iterations 1
Pressure gradient source: uncorrected Ubar = 0.14124, pressure gradient = 0.00101326
GAMG:  Solving for p, Initial residual = 0.0192989, Final residual = 1.92406e-05, No Iterations 62
time step continuity errors : sum local = 6.61697e-11, global = -8.51952e-19, cumulative = -1.77518e-17
Pressure gradient source: uncorrected Ubar = 0.14124, pressure gradient = 0.00100419
DILUPBiCG:  Solving for omega, Initial residual = 1.90564e-05, Final residual = 1.20057e-06, No Iterations 1
DILUPBiCG:  Solving for k, Initial residual = 0.000775047, Final residual = 4.69202e-05, No Iterations 1
ExecutionTime = 8.69 s  ClockTime = 8 s

Time = 36

DILUPBiCG:  Solving for Ux, Initial residual = 0.0013817, Final residual = 4.47703e-05, No Iterations 1
DILUPBiCG:  Solving for Uy, Initial residual = 0.00812329, Final residual = 3.74295e-05, No Iterations 3
DILUPBiCG:  Solving for Uz, Initial residual = 0.0197584, Final residual = 0.000621893, No Iterations 1
Pressure gradient source: uncorrected Ubar = 0.14124, pressure gradient = 0.000995909
GAMG:  Solving for p, Initial residual = 0.0190959, Final residual = 1.90432e-05, No Iterations 63
time step continuity errors : sum local = 6.42266e-11, global = -1.98247e-19, cumulative = -1.79501e-17
Pressure gradient source: uncorrected Ubar = 0.14124, pressure gradient = 0.000986809
DILUPBiCG:  Solving for omega, Initial residual = 1.85449e-05, Final residual = 1.17491e-06, No Iterations 1
DILUPBiCG:  Solving for k, Initial residual = 0.000759426, Final residual = 4.65105e-05, No Iterations 1
ExecutionTime = 8.93 s  ClockTime = 8 s

Time = 37

DILUPBiCG:  Solving for Ux, Initial residual = 0.00134432, Final residual = 4.36077e-05, No Iterations 1
DILUPBiCG:  Solving for Uy, Initial residual = 0.00777011, Final residual = 0.000433409, No Iterations 2
DILUPBiCG:  Solving for Uz, Initial residual = 0.0193193, Final residual = 0.000619323, No Iterations 1
Pressure gradient source: uncorrected Ubar = 0.14124, pressure gradient = 0.000979269
GAMG:  Solving for p, Initial residual = 0.0191098, Final residual = 1.84095e-05, No Iterations 63
time step continuity errors : sum local = 6.09237e-11, global = -2.35314e-18, cumulative = -2.03032e-17
Pressure gradient source: uncorrected Ubar = 0.14124, pressure gradient = 0.000970154
DILUPBiCG:  Solving for omega, Initial residual = 1.8095e-05, Final residual = 1.14941e-06, No Iterations 1
DILUPBiCG:  Solving for k, Initial residual = 0.000747216, Final residual = 4.62053e-05, No Iterations 1
ExecutionTime = 9.18 s  ClockTime = 9 s

Time = 38

DILUPBiCG:  Solving for Ux, Initial residual = 0.001309, Final residual = 4.2507e-05, No Iterations 1
DILUPBiCG:  Solving for Uy, Initial residual = 0.00744914, Final residual = 0.000205529, No Iterations 2
DILUPBiCG:  Solving for Uz, Initial residual = 0.0195527, Final residual = 0.000632555, No Iterations 1
Pressure gradient source: uncorrected Ubar = 0.14124, pressure gradient = 0.000963296
GAMG:  Solving for p, Initial residual = 0.0166083, Final residual = 1.59717e-05, No Iterations 63
time step continuity errors : sum local = 5.19225e-11, global = -1.68193e-18, cumulative = -2.19851e-17
Pressure gradient source: uncorrected Ubar = 0.14124, pressure gradient = 0.000954176
DILUPBiCG:  Solving for omega, Initial residual = 1.77103e-05, Final residual = 1.12434e-06, No Iterations 1
DILUPBiCG:  Solving for k, Initial residual = 0.000736296, Final residual = 4.59855e-05, No Iterations 1
ExecutionTime = 9.42 s  ClockTime = 9 s

Time = 39

DILUPBiCG:  Solving for Ux, Initial residual = 0.00127557, Final residual = 4.14638e-05, No Iterations 1
DILUPBiCG:  Solving for Uy, Initial residual = 0.00725079, Final residual = 0.000144201, No Iterations 2
DILUPBiCG:  Solving for Uz, Initial residual = 0.0191778, Final residual = 0.000602247, No Iterations 1
Pressure gradient source: uncorrected Ubar = 0.14124, pressure gradient = 0.000947946
GAMG:  Solving for p, Initial residual = 0.0162324, Final residual = 1.57409e-05, No Iterations 63
time step continuity errors : sum local = 5.02987e-11, global = -1.64844e-18, cumulative = -2.36336e-17
Pressure gradient source: uncorrected Ubar = 0.14124, pressure gradient = 0.000938831
DILUPBiCG:  Solving for omega, Initial residual = 1.73405e-05, Final residual = 1.10023e-06, No Iterations 1
DILUPBiCG:  Solving for k, Initial residual = 0.000727774, Final residual = 4.57475e-05, No Iterations 1
ExecutionTime = 9.67 s  ClockTime = 9 s

Time = 40

DILUPBiCG:  Solving for Ux, Initial residual = 0.0012441, Final residual = 4.04735e-05, No Iterations 1
DILUPBiCG:  Solving for Uy, Initial residual = 0.00704238, Final residual = 0.000108238, No Iterations 2
DILUPBiCG:  Solving for Uz, Initial residual = 0.0187127, Final residual = 0.000597807, No Iterations 1
Pressure gradient source: uncorrected Ubar = 0.14124, pressure gradient = 0.00093318
GAMG:  Solving for p, Initial residual = 0.015868, Final residual = 1.53946e-05, No Iterations 63
time step continuity errors : sum local = 4.83672e-11, global = -1.99031e-18, cumulative = -2.56239e-17
Pressure gradient source: uncorrected Ubar = 0.14124, pressure gradient = 0.000924079
DILUPBiCG:  Solving for omega, Initial residual = 1.69772e-05, Final residual = 1.07999e-06, No Iterations 1
DILUPBiCG:  Solving for k, Initial residual = 0.000721272, Final residual = 4.55039e-05, No Iterations 1
ExecutionTime = 9.92 s  ClockTime = 9 s

Time = 41

DILUPBiCG:  Solving for Ux, Initial residual = 0.0012144, Final residual = 3.95322e-05, No Iterations 1
DILUPBiCG:  Solving for Uy, Initial residual = 0.00684339, Final residual = 8.63801e-05, No Iterations 2
DILUPBiCG:  Solving for Uz, Initial residual = 0.0185163, Final residual = 0.000587014, No Iterations 1
Pressure gradient source: uncorrected Ubar = 0.14124, pressure gradient = 0.000918962
GAMG:  Solving for p, Initial residual = 0.0154967, Final residual = 1.49691e-05, No Iterations 63
time step continuity errors : sum local = 4.62439e-11, global = -8.50251e-19, cumulative = -2.64741e-17
Pressure gradient source: uncorrected Ubar = 0.14124, pressure gradient = 0.000909883
DILUPBiCG:  Solving for omega, Initial residual = 1.6621e-05, Final residual = 1.0615e-06, No Iterations 1
DILUPBiCG:  Solving for k, Initial residual = 0.000715177, Final residual = 4.52613e-05, No Iterations 1
ExecutionTime = 10.17 s  ClockTime = 10 s

Time = 42

DILUPBiCG:  Solving for Ux, Initial residual = 0.00118617, Final residual = 3.86375e-05, No Iterations 1
DILUPBiCG:  Solving for Uy, Initial residual = 0.00665384, Final residual = 7.17984e-05, No Iterations 2
DILUPBiCG:  Solving for Uz, Initial residual = 0.0180602, Final residual = 0.000554628, No Iterations 1
Pressure gradient source: uncorrected Ubar = 0.14124, pressure gradient = 0.00090526
GAMG:  Solving for p, Initial residual = 0.0151352, Final residual = 1.45055e-05, No Iterations 63
time step continuity errors : sum local = 4.40729e-11, global = -1.97157e-18, cumulative = -2.84457e-17
Pressure gradient source: uncorrected Ubar = 0.14124, pressure gradient = 0.000896209
DILUPBiCG:  Solving for omega, Initial residual = 1.62723e-05, Final residual = 1.04301e-06, No Iterations 1
DILUPBiCG:  Solving for k, Initial residual = 0.000709295, Final residual = 4.51407e-05, No Iterations 1
ExecutionTime = 10.41 s  ClockTime = 10 s

Time = 43

DILUPBiCG:  Solving for Ux, Initial residual = 0.00115929, Final residual = 3.77893e-05, No Iterations 1
DILUPBiCG:  Solving for Uy, Initial residual = 0.00647369, Final residual = 6.14279e-05, No Iterations 2
DILUPBiCG:  Solving for Uz, Initial residual = 0.0180025, Final residual = 0.000582377, No Iterations 1
Pressure gradient source: uncorrected Ubar = 0.14124, pressure gradient = 0.000892043
GAMG:  Solving for p, Initial residual = 0.014787, Final residual = 1.40216e-05, No Iterations 63
time step continuity errors : sum local = 4.19208e-11, global = 7.61667e-19, cumulative = -2.7684e-17
Pressure gradient source: uncorrected Ubar = 0.14124, pressure gradient = 0.000883025
DILUPBiCG:  Solving for omega, Initial residual = 1.59316e-05, Final residual = 1.02457e-06, No Iterations 1
DILUPBiCG:  Solving for k, Initial residual = 0.000703653, Final residual = 4.51519e-05, No Iterations 1
ExecutionTime = 10.67 s  ClockTime = 10 s

Time = 44

DILUPBiCG:  Solving for Ux, Initial residual = 0.00113368, Final residual = 3.698e-05, No Iterations 1
DILUPBiCG:  Solving for Uy, Initial residual = 0.00630371, Final residual = 0.000616544, No Iterations 1
DILUPBiCG:  Solving for Uz, Initial residual = 0.0178286, Final residual = 0.000560772, No Iterations 1
Pressure gradient source: uncorrected Ubar = 0.14124, pressure gradient = 0.000879283
GAMG:  Solving for p, Initial residual = 0.0156543, Final residual = 1.54953e-05, No Iterations 60
time step continuity errors : sum local = 4.56365e-11, global = 6.94902e-19, cumulative = -2.69891e-17
Pressure gradient source: uncorrected Ubar = 0.14124, pressure gradient = 0.000870303
DILUPBiCG:  Solving for omega, Initial residual = 1.55989e-05, Final residual = 1.00626e-06, No Iterations 1
DILUPBiCG:  Solving for k, Initial residual = 0.000699848, Final residual = 4.51591e-05, No Iterations 1
ExecutionTime = 10.91 s  ClockTime = 10 s

Time = 45

DILUPBiCG:  Solving for Ux, Initial residual = 0.00110924, Final residual = 3.62069e-05, No Iterations 1
DILUPBiCG:  Solving for Uy, Initial residual = 0.00627734, Final residual = 5.48384e-05, No Iterations 2
DILUPBiCG:  Solving for Uz, Initial residual = 0.0174077, Final residual = 0.000543145, No Iterations 1
Pressure gradient source: uncorrected Ubar = 0.14124, pressure gradient = 0.000866955
GAMG:  Solving for p, Initial residual = 0.0174876, Final residual = 1.64073e-05, No Iterations 63
time step continuity errors : sum local = 4.75919e-11, global = -1.59866e-18, cumulative = -2.85878e-17
Pressure gradient source: uncorrected Ubar = 0.14124, pressure gradient = 0.000858018
DILUPBiCG:  Solving for omega, Initial residual = 1.52745e-05, Final residual = 9.88118e-07, No Iterations 1
DILUPBiCG:  Solving for k, Initial residual = 0.000697302, Final residual = 4.51831e-05, No Iterations 1
ExecutionTime = 11.15 s  ClockTime = 11 s

Time = 46

DILUPBiCG:  Solving for Ux, Initial residual = 0.00108588, Final residual = 3.54683e-05, No Iterations 1
DILUPBiCG:  Solving for Uy, Initial residual = 0.00599701, Final residual = 0.00046678, No Iterations 1
DILUPBiCG:  Solving for Uz, Initial residual = 0.0175896, Final residual = 0.000586786, No Iterations 1
Pressure gradient source: uncorrected Ubar = 0.14124, pressure gradient = 0.000855033
GAMG:  Solving for p, Initial residual = 0.0149484, Final residual = 1.48676e-05, No Iterations 60
time step continuity errors : sum local = 4.24876e-11, global = 1.14433e-18, cumulative = -2.74435e-17
Pressure gradient source: uncorrected Ubar = 0.14124, pressure gradient = 0.000846143
DILUPBiCG:  Solving for omega, Initial residual = 1.49583e-05, Final residual = 9.70189e-07, No Iterations 1
DILUPBiCG:  Solving for k, Initial residual = 0.000694713, Final residual = 4.52134e-05, No Iterations 1
ExecutionTime = 11.39 s  ClockTime = 11 s

Time = 47

DILUPBiCG:  Solving for Ux, Initial residual = 0.00106371, Final residual = 3.47671e-05, No Iterations 1
DILUPBiCG:  Solving for Uy, Initial residual = 0.00595105, Final residual = 0.000487079, No Iterations 1
DILUPBiCG:  Solving for Uz, Initial residual = 0.0170257, Final residual = 0.000530021, No Iterations 1
Pressure gradient source: uncorrected Ubar = 0.14124, pressure gradient = 0.000843497
GAMG:  Solving for p, Initial residual = 0.013792, Final residual = 1.30156e-05, No Iterations 62
time step continuity errors : sum local = 3.66944e-11, global = -3.38909e-19, cumulative = -2.77824e-17
Pressure gradient source: uncorrected Ubar = 0.14124, pressure gradient = 0.000834657
DILUPBiCG:  Solving for omega, Initial residual = 1.46504e-05, Final residual = 9.52508e-07, No Iterations 1
DILUPBiCG:  Solving for k, Initial residual = 0.000692112, Final residual = 4.5252e-05, No Iterations 1
ExecutionTime = 11.64 s  ClockTime = 11 s

Time = 48

DILUPBiCG:  Solving for Ux, Initial residual = 0.00104258, Final residual = 3.40945e-05, No Iterations 1
DILUPBiCG:  Solving for Uy, Initial residual = 0.00582321, Final residual = 0.000448434, No Iterations 1
DILUPBiCG:  Solving for Uz, Initial residual = 0.0168616, Final residual = 0.000534624, No Iterations 1
Pressure gradient source: uncorrected Ubar = 0.14124, pressure gradient = 0.000832326
GAMG:  Solving for p, Initial residual = 0.0135166, Final residual = 1.30212e-05, No Iterations 62
time step continuity errors : sum local = 3.6207e-11, global = -1.26837e-18, cumulative = -2.90507e-17
Pressure gradient source: uncorrected Ubar = 0.14124, pressure gradient = 0.000823538
DILUPBiCG:  Solving for omega, Initial residual = 1.43505e-05, Final residual = 9.35107e-07, No Iterations 1
DILUPBiCG:  Solving for k, Initial residual = 0.000689399, Final residual = 4.53661e-05, No Iterations 1
ExecutionTime = 11.89 s  ClockTime = 11 s

Time = 49

DILUPBiCG:  Solving for Ux, Initial residual = 0.00102234, Final residual = 3.34495e-05, No Iterations 1
DILUPBiCG:  Solving for Uy, Initial residual = 0.00568698, Final residual = 0.000406553, No Iterations 1
DILUPBiCG:  Solving for Uz, Initial residual = 0.0168037, Final residual = 0.000532537, No Iterations 1
Pressure gradient source: uncorrected Ubar = 0.14124, pressure gradient = 0.0008215
GAMG:  Solving for p, Initial residual = 0.0132118, Final residual = 1.26472e-05, No Iterations 62
time step continuity errors : sum local = 3.46912e-11, global = -1.2025e-18, cumulative = -3.02532e-17
Pressure gradient source: uncorrected Ubar = 0.14124, pressure gradient = 0.000812767
DILUPBiCG:  Solving for omega, Initial residual = 1.40588e-05, Final residual = 9.18236e-07, No Iterations 1
DILUPBiCG:  Solving for k, Initial residual = 0.000686558, Final residual = 4.55395e-05, No Iterations 1
ExecutionTime = 12.12 s  ClockTime = 12 s

Time = 50

DILUPBiCG:  Solving for Ux, Initial residual = 0.00100291, Final residual = 3.28336e-05, No Iterations 1
DILUPBiCG:  Solving for Uy, Initial residual = 0.00555605, Final residual = 0.000371218, No Iterations 1
DILUPBiCG:  Solving for Uz, Initial residual = 0.0166348, Final residual = 0.000516672, No Iterations 1
Pressure gradient source: uncorrected Ubar = 0.14124, pressure gradient = 0.000811002
GAMG:  Solving for p, Initial residual = 0.012931, Final residual = 1.22561e-05, No Iterations 62
time step continuity errors : sum local = 3.31607e-11, global = 7.57424e-19, cumulative = -2.94958e-17
Pressure gradient source: uncorrected Ubar = 0.14124, pressure gradient = 0.000802326
DILUPBiCG:  Solving for omega, Initial residual = 1.3775e-05, Final residual = 9.03309e-07, No Iterations 1
DILUPBiCG:  Solving for k, Initial residual = 0.000684828, Final residual = 4.5717e-05, No Iterations 1
ExecutionTime = 12.36 s  ClockTime = 12 s

Time = 51

DILUPBiCG:  Solving for Ux, Initial residual = 0.000984265, Final residual = 3.22417e-05, No Iterations 1
DILUPBiCG:  Solving for Uy, Initial residual = 0.00543301, Final residual = 0.000342046, No Iterations 1
DILUPBiCG:  Solving for Uz, Initial residual = 0.0165665, Final residual = 0.000553726, No Iterations 1
Pressure gradient source: uncorrected Ubar = 0.14124, pressure gradient = 0.000800815
GAMG:  Solving for p, Initial residual = 0.0126858, Final residual = 1.18948e-05, No Iterations 62
time step continuity errors : sum local = 3.17547e-11, global = 1.5143e-18, cumulative = -2.79815e-17
Pressure gradient source: uncorrected Ubar = 0.14124, pressure gradient = 0.000792198
DILUPBiCG:  Solving for omega, Initial residual = 1.3499e-05, Final residual = 8.89753e-07, No Iterations 1
DILUPBiCG:  Solving for k, Initial residual = 0.000684504, Final residual = 4.59393e-05, No Iterations 1
ExecutionTime = 12.62 s  ClockTime = 12 s

Time = 52

DILUPBiCG:  Solving for Ux, Initial residual = 0.000966341, Final residual = 3.16723e-05, No Iterations 1
DILUPBiCG:  Solving for Uy, Initial residual = 0.00531747, Final residual = 0.000317616, No Iterations 1
DILUPBiCG:  Solving for Uz, Initial residual = 0.0161644, Final residual = 0.000508766, No Iterations 1
Pressure gradient source: uncorrected Ubar = 0.14124, pressure gradient = 0.000790924
GAMG:  Solving for p, Initial residual = 0.0124654, Final residual = 1.15863e-05, No Iterations 62
time step continuity errors : sum local = 3.05264e-11, global = -3.15396e-18, cumulative = -3.11355e-17
Pressure gradient source: uncorrected Ubar = 0.14124, pressure gradient = 0.000782367
DILUPBiCG:  Solving for omega, Initial residual = 1.32473e-05, Final residual = 8.78374e-07, No Iterations 1
DILUPBiCG:  Solving for k, Initial residual = 0.000684042, Final residual = 4.61653e-05, No Iterations 1
ExecutionTime = 12.85 s  ClockTime = 12 s

Time = 53

DILUPBiCG:  Solving for Ux, Initial residual = 0.000949102, Final residual = 3.11236e-05, No Iterations 1
DILUPBiCG:  Solving for Uy, Initial residual = 0.00520915, Final residual = 0.000296873, No Iterations 1
DILUPBiCG:  Solving for Uz, Initial residual = 0.0159699, Final residual = 0.000496774, No Iterations 1
Pressure gradient source: uncorrected Ubar = 0.14124, pressure gradient = 0.000781315
GAMG:  Solving for p, Initial residual = 0.0122603, Final residual = 1.22247e-05, No Iterations 61
time step continuity errors : sum local = 3.1784e-11, global = 4.55865e-19, cumulative = -3.06796e-17
Pressure gradient source: uncorrected Ubar = 0.14124, pressure gradient = 0.000772819
DILUPBiCG:  Solving for omega, Initial residual = 1.301e-05, Final residual = 8.67084e-07, No Iterations 1
DILUPBiCG:  Solving for k, Initial residual = 0.000683379, Final residual = 4.64077e-05, No Iterations 1
ExecutionTime = 13.1 s  ClockTime = 13 s

Time = 54

DILUPBiCG:  Solving for Ux, Initial residual = 0.000932563, Final residual = 3.05944e-05, No Iterations 1
DILUPBiCG:  Solving for Uy, Initial residual = 0.00510736, Final residual = 0.000279031, No Iterations 1
DILUPBiCG:  Solving for Uz, Initial residual = 0.0157553, Final residual = 0.00050623, No Iterations 1
Pressure gradient source: uncorrected Ubar = 0.14124, pressure gradient = 0.000771973
GAMG:  Solving for p, Initial residual = 0.0120623, Final residual = 1.1962e-05, No Iterations 61
time step continuity errors : sum local = 3.07105e-11, global = -3.06422e-18, cumulative = -3.37438e-17
Pressure gradient source: uncorrected Ubar = 0.14124, pressure gradient = 0.00076354
DILUPBiCG:  Solving for omega, Initial residual = 1.27856e-05, Final residual = 8.55819e-07, No Iterations 1
DILUPBiCG:  Solving for k, Initial residual = 0.000682539, Final residual = 4.66607e-05, No Iterations 1
ExecutionTime = 13.33 s  ClockTime = 13 s

Time = 55

DILUPBiCG:  Solving for Ux, Initial residual = 0.000916759, Final residual = 3.00835e-05, No Iterations 1
DILUPBiCG:  Solving for Uy, Initial residual = 0.00501129, Final residual = 0.000263452, No Iterations 1
DILUPBiCG:  Solving for Uz, Initial residual = 0.0157305, Final residual = 0.000490316, No Iterations 1
Pressure gradient source: uncorrected Ubar = 0.14124, pressure gradient = 0.000762886
GAMG:  Solving for p, Initial residual = 0.0118636, Final residual = 1.16903e-05, No Iterations 61
time step continuity errors : sum local = 2.96348e-11, global = -1.01401e-18, cumulative = -3.47578e-17
Pressure gradient source: uncorrected Ubar = 0.14124, pressure gradient = 0.000754516
DILUPBiCG:  Solving for omega, Initial residual = 1.25804e-05, Final residual = 8.44541e-07, No Iterations 1
DILUPBiCG:  Solving for k, Initial residual = 0.000681539, Final residual = 4.69267e-05, No Iterations 1
ExecutionTime = 13.58 s  ClockTime = 13 s

Time = 56

DILUPBiCG:  Solving for Ux, Initial residual = 0.000901564, Final residual = 2.95899e-05, No Iterations 1
DILUPBiCG:  Solving for Uy, Initial residual = 0.00491979, Final residual = 0.000249719, No Iterations 1
DILUPBiCG:  Solving for Uz, Initial residual = 0.0157166, Final residual = 0.000493453, No Iterations 1
Pressure gradient source: uncorrected Ubar = 0.14124, pressure gradient = 0.000754042
GAMG:  Solving for p, Initial residual = 0.0116776, Final residual = 1.14412e-05, No Iterations 61
time step continuity errors : sum local = 2.86529e-11, global = -1.26679e-18, cumulative = -3.60246e-17
Pressure gradient source: uncorrected Ubar = 0.14124, pressure gradient = 0.000745736
DILUPBiCG:  Solving for omega, Initial residual = 1.23787e-05, Final residual = 8.3327e-07, No Iterations 1
DILUPBiCG:  Solving for k, Initial residual = 0.000680406, Final residual = 4.72399e-05, No Iterations 1
ExecutionTime = 13.82 s  ClockTime = 13 s

Time = 57

DILUPBiCG:  Solving for Ux, Initial residual = 0.000886907, Final residual = 2.91131e-05, No Iterations 1
DILUPBiCG:  Solving for Uy, Initial residual = 0.00483266, Final residual = 0.000237528, No Iterations 1
DILUPBiCG:  Solving for Uz, Initial residual = 0.0157551, Final residual = 0.000505712, No Iterations 1
Pressure gradient source: uncorrected Ubar = 0.14124, pressure gradient = 0.000745431
GAMG:  Solving for p, Initial residual = 0.0114968, Final residual = 1.12133e-05, No Iterations 61
time step continuity errors : sum local = 2.77522e-11, global = -7.8756e-19, cumulative = -3.68122e-17
Pressure gradient source: uncorrected Ubar = 0.14124, pressure gradient = 0.000737189
DILUPBiCG:  Solving for omega, Initial residual = 1.21804e-05, Final residual = 8.22028e-07, No Iterations 1
DILUPBiCG:  Solving for k, Initial residual = 0.000680308, Final residual = 4.75847e-05, No Iterations 1
ExecutionTime = 14.07 s  ClockTime = 14 s

Time = 58

DILUPBiCG:  Solving for Ux, Initial residual = 0.000872754, Final residual = 2.86549e-05, No Iterations 1
DILUPBiCG:  Solving for Uy, Initial residual = 0.00475023, Final residual = 0.000226633, No Iterations 1
DILUPBiCG:  Solving for Uz, Initial residual = 0.0156445, Final residual = 0.000483963, No Iterations 1
Pressure gradient source: uncorrected Ubar = 0.14124, pressure gradient = 0.000737041
GAMG:  Solving for p, Initial residual = 0.0113274, Final residual = 1.0984e-05, No Iterations 61
time step continuity errors : sum local = 2.68798e-11, global = -1.85068e-18, cumulative = -3.86629e-17
Pressure gradient source: uncorrected Ubar = 0.14124, pressure gradient = 0.000728864
DILUPBiCG:  Solving for omega, Initial residual = 1.19854e-05, Final residual = 8.10833e-07, No Iterations 1
DILUPBiCG:  Solving for k, Initial residual = 0.000681489, Final residual = 4.79741e-05, No Iterations 1
ExecutionTime = 14.31 s  ClockTime = 14 s

Time = 59

DILUPBiCG:  Solving for Ux, Initial residual = 0.000859073, Final residual = 2.8211e-05, No Iterations 1
DILUPBiCG:  Solving for Uy, Initial residual = 0.00467314, Final residual = 0.000216831, No Iterations 1
DILUPBiCG:  Solving for Uz, Initial residual = 0.0156285, Final residual = 0.000491473, No Iterations 1
Pressure gradient source: uncorrected Ubar = 0.14124, pressure gradient = 0.000728863
GAMG:  Solving for p, Initial residual = 0.0111599, Final residual = 1.07621e-05, No Iterations 61
time step continuity errors : sum local = 2.6047e-11, global = 1.66475e-18, cumulative = -3.69981e-17
Pressure gradient source: uncorrected Ubar = 0.14124, pressure gradient = 0.000720751
DILUPBiCG:  Solving for omega, Initial residual = 1.17939e-05, Final residual = 7.9977e-07, No Iterations 1
DILUPBiCG:  Solving for k, Initial residual = 0.000682606, Final residual = 4.83619e-05, No Iterations 1
ExecutionTime = 14.55 s  ClockTime = 14 s

Time = 60

DILUPBiCG:  Solving for Ux, Initial residual = 0.000845834, Final residual = 2.77807e-05, No Iterations 1
DILUPBiCG:  Solving for Uy, Initial residual = 0.00460016, Final residual = 0.000207923, No Iterations 1
DILUPBiCG:  Solving for Uz, Initial residual = 0.0154459, Final residual = 0.000487501, No Iterations 1
Pressure gradient source: uncorrected Ubar = 0.14124, pressure gradient = 0.000720888
GAMG:  Solving for p, Initial residual = 0.0109976, Final residual = 1.05462e-05, No Iterations 61
time step continuity errors : sum local = 2.52376e-11, global = -1.04874e-18, cumulative = -3.80469e-17
Pressure gradient source: uncorrected Ubar = 0.14124, pressure gradient = 0.00071284
DILUPBiCG:  Solving for omega, Initial residual = 1.16059e-05, Final residual = 7.89136e-07, No Iterations 1
DILUPBiCG:  Solving for k, Initial residual = 0.000683543, Final residual = 4.87459e-05, No Iterations 1
ExecutionTime = 14.8 s  ClockTime = 14 s

Time = 61

DILUPBiCG:  Solving for Ux, Initial residual = 0.00083302, Final residual = 2.73634e-05, No Iterations 1
DILUPBiCG:  Solving for Uy, Initial residual = 0.00453061, Final residual = 0.000199816, No Iterations 1
DILUPBiCG:  Solving for Uz, Initial residual = 0.0152038, Final residual = 0.000475883, No Iterations 1
Pressure gradient source: uncorrected Ubar = 0.14124, pressure gradient = 0.000713107
GAMG:  Solving for p, Initial residual = 0.0108518, Final residual = 1.03219e-05, No Iterations 61
time step continuity errors : sum local = 2.44251e-11, global = -5.11715e-19, cumulative = -3.85586e-17
Pressure gradient source: uncorrected Ubar = 0.14124, pressure gradient = 0.000705123
DILUPBiCG:  Solving for omega, Initial residual = 1.14213e-05, Final residual = 7.78594e-07, No Iterations 1
DILUPBiCG:  Solving for k, Initial residual = 0.000684328, Final residual = 4.91407e-05, No Iterations 1
ExecutionTime = 15.04 s  ClockTime = 15 s

Time = 62

DILUPBiCG:  Solving for Ux, Initial residual = 0.000820643, Final residual = 2.69605e-05, No Iterations 1
DILUPBiCG:  Solving for Uy, Initial residual = 0.00446447, Final residual = 0.000192426, No Iterations 1
DILUPBiCG:  Solving for Uz, Initial residual = 0.0151019, Final residual = 0.000474262, No Iterations 1
Pressure gradient source: uncorrected Ubar = 0.14124, pressure gradient = 0.000705511
GAMG:  Solving for p, Initial residual = 0.0107128, Final residual = 1.00953e-05, No Iterations 61
time step continuity errors : sum local = 2.36296e-11, global = -2.43393e-20, cumulative = -3.85829e-17
Pressure gradient source: uncorrected Ubar = 0.14124, pressure gradient = 0.000697592
DILUPBiCG:  Solving for omega, Initial residual = 1.12402e-05, Final residual = 7.68206e-07, No Iterations 1
DILUPBiCG:  Solving for k, Initial residual = 0.000684992, Final residual = 4.95415e-05, No Iterations 1
ExecutionTime = 15.27 s  ClockTime = 15 s

Time = 63

DILUPBiCG:  Solving for Ux, Initial residual = 0.000808751, Final residual = 2.65708e-05, No Iterations 1
DILUPBiCG:  Solving for Uy, Initial residual = 0.0044015, Final residual = 0.000185644, No Iterations 1
DILUPBiCG:  Solving for Uz, Initial residual = 0.0150888, Final residual = 0.000489172, No Iterations 1
Pressure gradient source: uncorrected Ubar = 0.14124, pressure gradient = 0.000698094
GAMG:  Solving for p, Initial residual = 0.0105849, Final residual = 9.86725e-06, No Iterations 61
time step continuity errors : sum local = 2.28474e-11, global = 1.35617e-19, cumulative = -3.84473e-17
Pressure gradient source: uncorrected Ubar = 0.14124, pressure gradient = 0.000690238
DILUPBiCG:  Solving for omega, Initial residual = 1.10626e-05, Final residual = 7.58152e-07, No Iterations 1
DILUPBiCG:  Solving for k, Initial residual = 0.00068565, Final residual = 4.99533e-05, No Iterations 1
ExecutionTime = 15.52 s  ClockTime = 15 s

Time = 64

DILUPBiCG:  Solving for Ux, Initial residual = 0.000797277, Final residual = 2.61921e-05, No Iterations 1
DILUPBiCG:  Solving for Uy, Initial residual = 0.00434094, Final residual = 0.000179372, No Iterations 1
DILUPBiCG:  Solving for Uz, Initial residual = 0.0150631, Final residual = 0.000492801, No Iterations 1
Pressure gradient source: uncorrected Ubar = 0.14124, pressure gradient = 0.000690847
GAMG:  Solving for p, Initial residual = 0.0104636, Final residual = 9.64015e-06, No Iterations 61
time step continuity errors : sum local = 2.20724e-11, global = -2.5707e-18, cumulative = -4.1018e-17
Pressure gradient source: uncorrected Ubar = 0.14124, pressure gradient = 0.000683055
DILUPBiCG:  Solving for omega, Initial residual = 1.08883e-05, Final residual = 7.48286e-07, No Iterations 1
DILUPBiCG:  Solving for k, Initial residual = 0.000686856, Final residual = 5.04097e-05, No Iterations 1
ExecutionTime = 15.76 s  ClockTime = 15 s

Time = 65

DILUPBiCG:  Solving for Ux, Initial residual = 0.000786154, Final residual = 2.5824e-05, No Iterations 1
DILUPBiCG:  Solving for Uy, Initial residual = 0.00428292, Final residual = 0.000173567, No Iterations 1
DILUPBiCG:  Solving for Uz, Initial residual = 0.0150355, Final residual = 0.000477085, No Iterations 1
Pressure gradient source: uncorrected Ubar = 0.14124, pressure gradient = 0.000683764
GAMG:  Solving for p, Initial residual = 0.0103395, Final residual = 9.41173e-06, No Iterations 61
time step continuity errors : sum local = 2.1316e-11, global = -1.90713e-18, cumulative = -4.29251e-17
Pressure gradient source: uncorrected Ubar = 0.14124, pressure gradient = 0.000676034
DILUPBiCG:  Solving for omega, Initial residual = 1.07175e-05, Final residual = 7.39519e-07, No Iterations 1
DILUPBiCG:  Solving for k, Initial residual = 0.000689466, Final residual = 5.09034e-05, No Iterations 1
ExecutionTime = 16 s  ClockTime = 16 s

Time = 66

DILUPBiCG:  Solving for Ux, Initial residual = 0.000775362, Final residual = 2.54677e-05, No Iterations 1
DILUPBiCG:  Solving for Uy, Initial residual = 0.00422802, Final residual = 0.000168233, No Iterations 1
DILUPBiCG:  Solving for Uz, Initial residual = 0.01485, Final residual = 0.000471939, No Iterations 1
Pressure gradient source: uncorrected Ubar = 0.14124, pressure gradient = 0.000676838
GAMG:  Solving for p, Initial residual = 0.0102219, Final residual = 1.01083e-05, No Iterations 60
time step continuity errors : sum local = 2.26497e-11, global = -2.07682e-19, cumulative = -4.31328e-17
Pressure gradient source: uncorrected Ubar = 0.14124, pressure gradient = 0.000669171
DILUPBiCG:  Solving for omega, Initial residual = 1.05501e-05, Final residual = 7.3084e-07, No Iterations 1
DILUPBiCG:  Solving for k, Initial residual = 0.000693005, Final residual = 5.144e-05, No Iterations 1
ExecutionTime = 16.24 s  ClockTime = 16 s

Time = 67

DILUPBiCG:  Solving for Ux, Initial residual = 0.000764885, Final residual = 2.51217e-05, No Iterations 1
DILUPBiCG:  Solving for Uy, Initial residual = 0.00417638, Final residual = 0.000163417, No Iterations 1
DILUPBiCG:  Solving for Uz, Initial residual = 0.014754, Final residual = 0.000489406, No Iterations 1
Pressure gradient source: uncorrected Ubar = 0.14124, pressure gradient = 0.000670064
GAMG:  Solving for p, Initial residual = 0.0101122, Final residual = 9.88304e-06, No Iterations 60
time step continuity errors : sum local = 2.19158e-11, global = -3.06945e-18, cumulative = -4.62023e-17
Pressure gradient source: uncorrected Ubar = 0.14124, pressure gradient = 0.000662459
DILUPBiCG:  Solving for omega, Initial residual = 1.03859e-05, Final residual = 7.22183e-07, No Iterations 1
DILUPBiCG:  Solving for k, Initial residual = 0.000696691, Final residual = 5.19839e-05, No Iterations 1
ExecutionTime = 16.47 s  ClockTime = 16 s

Time = 68

DILUPBiCG:  Solving for Ux, Initial residual = 0.000754707, Final residual = 2.47847e-05, No Iterations 1
DILUPBiCG:  Solving for Uy, Initial residual = 0.0041276, Final residual = 0.000159077, No Iterations 1
DILUPBiCG:  Solving for Uz, Initial residual = 0.0148501, Final residual = 0.000493061, No Iterations 1
Pressure gradient source: uncorrected Ubar = 0.14124, pressure gradient = 0.000663435
GAMG:  Solving for p, Initial residual = 0.0100044, Final residual = 9.64951e-06, No Iterations 60
time step continuity errors : sum local = 2.11822e-11, global = -1.48433e-18, cumulative = -4.76866e-17
Pressure gradient source: uncorrected Ubar = 0.14124, pressure gradient = 0.000655891
DILUPBiCG:  Solving for omega, Initial residual = 1.02251e-05, Final residual = 7.13556e-07, No Iterations 1
DILUPBiCG:  Solving for k, Initial residual = 0.000700412, Final residual = 5.2545e-05, No Iterations 1
ExecutionTime = 16.72 s  ClockTime = 16 s

Time = 69

DILUPBiCG:  Solving for Ux, Initial residual = 0.000744816, Final residual = 2.44564e-05, No Iterations 1
DILUPBiCG:  Solving for Uy, Initial residual = 0.00408123, Final residual = 0.000155105, No Iterations 1
DILUPBiCG:  Solving for Uz, Initial residual = 0.0148957, Final residual = 0.000471876, No Iterations 1
Pressure gradient source: uncorrected Ubar = 0.14124, pressure gradient = 0.000656945
GAMG:  Solving for p, Initial residual = 0.00989245, Final residual = 9.42124e-06, No Iterations 60
time step continuity errors : sum local = 2.04672e-11, global = 6.81722e-20, cumulative = -4.76184e-17
Pressure gradient source: uncorrected Ubar = 0.14124, pressure gradient = 0.000649462
DILUPBiCG:  Solving for omega, Initial residual = 1.00767e-05, Final residual = 7.04966e-07, No Iterations 1
DILUPBiCG:  Solving for k, Initial residual = 0.00070418, Final residual = 5.31287e-05, No Iterations 1
ExecutionTime = 16.96 s  ClockTime = 17 s

Time = 70

DILUPBiCG:  Solving for Ux, Initial residual = 0.000735198, Final residual = 2.41363e-05, No Iterations 1
DILUPBiCG:  Solving for Uy, Initial residual = 0.00403718, Final residual = 0.000151499, No Iterations 1
DILUPBiCG:  Solving for Uz, Initial residual = 0.0148336, Final residual = 0.000474795, No Iterations 1
Pressure gradient source: uncorrected Ubar = 0.14124, pressure gradient = 0.000650591
GAMG:  Solving for p, Initial residual = 0.00978495, Final residual = 9.19917e-06, No Iterations 60
time step continuity errors : sum local = 1.97916e-11, global = 7.18563e-20, cumulative = -4.75466e-17
Pressure gradient source: uncorrected Ubar = 0.14124, pressure gradient = 0.000643168
DILUPBiCG:  Solving for omega, Initial residual = 9.93464e-06, Final residual = 6.96593e-07, No Iterations 1
DILUPBiCG:  Solving for k, Initial residual = 0.000707972, Final residual = 5.37179e-05, No Iterations 1
ExecutionTime = 17.19 s  ClockTime = 17 s

Time = 71

DILUPBiCG:  Solving for Ux, Initial residual = 0.000725889, Final residual = 2.3824e-05, No Iterations 1
DILUPBiCG:  Solving for Uy, Initial residual = 0.00399547, Final residual = 0.000148288, No Iterations 1
DILUPBiCG:  Solving for Uz, Initial residual = 0.0147782, Final residual = 0.000468492, No Iterations 1
Pressure gradient source: uncorrected Ubar = 0.14124, pressure gradient = 0.000644367
GAMG:  Solving for p, Initial residual = 0.00968081, Final residual = 9.63352e-06, No Iterations 59
time step continuity errors : sum local = 2.05186e-11, global = -1.60896e-18, cumulative = -4.91555e-17
Pressure gradient source: uncorrected Ubar = 0.14124, pressure gradient = 0.000637002
DILUPBiCG:  Solving for omega, Initial residual = 9.79508e-06, Final residual = 6.88481e-07, No Iterations 1
DILUPBiCG:  Solving for k, Initial residual = 0.000711762, Final residual = 5.43266e-05, No Iterations 1
ExecutionTime = 17.43 s  ClockTime = 17 s

Time = 72

DILUPBiCG:  Solving for Ux, Initial residual = 0.000716901, Final residual = 2.35193e-05, No Iterations 1
DILUPBiCG:  Solving for Uy, Initial residual = 0.00395583, Final residual = 0.000145391, No Iterations 1
DILUPBiCG:  Solving for Uz, Initial residual = 0.014735, Final residual = 0.000477125, No Iterations 1
Pressure gradient source: uncorrected Ubar = 0.14124, pressure gradient = 0.000638267
GAMG:  Solving for p, Initial residual = 0.00958088, Final residual = 9.40579e-06, No Iterations 59
time step continuity errors : sum local = 1.98408e-11, global = -4.14551e-19, cumulative = -4.95701e-17
Pressure gradient source: uncorrected Ubar = 0.14124, pressure gradient = 0.000630961
DILUPBiCG:  Solving for omega, Initial residual = 9.66782e-06, Final residual = 6.80419e-07, No Iterations 1
DILUPBiCG:  Solving for k, Initial residual = 0.00071608, Final residual = 5.49523e-05, No Iterations 1
ExecutionTime = 17.67 s  ClockTime = 17 s

Time = 73

DILUPBiCG:  Solving for Ux, Initial residual = 0.00070818, Final residual = 2.32217e-05, No Iterations 1
DILUPBiCG:  Solving for Uy, Initial residual = 0.00391808, Final residual = 0.000142769, No Iterations 1
DILUPBiCG:  Solving for Uz, Initial residual = 0.0147503, Final residual = 0.00048231, No Iterations 1
Pressure gradient source: uncorrected Ubar = 0.14124, pressure gradient = 0.000632289
GAMG:  Solving for p, Initial residual = 0.00948522, Final residual = 9.19266e-06, No Iterations 59
time step continuity errors : sum local = 1.92034e-11, global = 6.10213e-19, cumulative = -4.89599e-17
Pressure gradient source: uncorrected Ubar = 0.14124, pressure gradient = 0.00062504
DILUPBiCG:  Solving for omega, Initial residual = 9.54409e-06, Final residual = 6.72406e-07, No Iterations 1
DILUPBiCG:  Solving for k, Initial residual = 0.000721648, Final residual = 5.55836e-05, No Iterations 1
ExecutionTime = 17.91 s  ClockTime = 17 s

Time = 74

DILUPBiCG:  Solving for Ux, Initial residual = 0.000699685, Final residual = 2.2931e-05, No Iterations 1
DILUPBiCG:  Solving for Uy, Initial residual = 0.00388302, Final residual = 0.000140364, No Iterations 1
DILUPBiCG:  Solving for Uz, Initial residual = 0.0148537, Final residual = 0.000456456, No Iterations 1
Pressure gradient source: uncorrected Ubar = 0.14124, pressure gradient = 0.000626427
GAMG:  Solving for p, Initial residual = 0.00939447, Final residual = 8.97361e-06, No Iterations 59
time step continuity errors : sum local = 1.85631e-11, global = -8.94254e-19, cumulative = -4.98541e-17
Pressure gradient source: uncorrected Ubar = 0.14124, pressure gradient = 0.000619235
DILUPBiCG:  Solving for omega, Initial residual = 9.42199e-06, Final residual = 6.6452e-07, No Iterations 1
DILUPBiCG:  Solving for k, Initial residual = 0.000727823, Final residual = 5.62136e-05, No Iterations 1
ExecutionTime = 18.13 s  ClockTime = 18 s

Time = 75

DILUPBiCG:  Solving for Ux, Initial residual = 0.000691402, Final residual = 2.26483e-05, No Iterations 1
DILUPBiCG:  Solving for Uy, Initial residual = 0.00385032, Final residual = 0.000138173, No Iterations 1
DILUPBiCG:  Solving for Uz, Initial residual = 0.0145497, Final residual = 0.000451974, No Iterations 1
Pressure gradient source: uncorrected Ubar = 0.14124, pressure gradient = 0.000620678
GAMG:  Solving for p, Initial residual = 0.00930791, Final residual = 8.76784e-06, No Iterations 59
time step continuity errors : sum local = 1.7958e-11, global = -9.71713e-19, cumulative = -5.08258e-17
Pressure gradient source: uncorrected Ubar = 0.14124, pressure gradient = 0.000613541
DILUPBiCG:  Solving for omega, Initial residual = 9.30154e-06, Final residual = 6.56846e-07, No Iterations 1
DILUPBiCG:  Solving for k, Initial residual = 0.000733965, Final residual = 5.68397e-05, No Iterations 1
ExecutionTime = 18.37 s  ClockTime = 18 s

Time = 76

DILUPBiCG:  Solving for Ux, Initial residual = 0.000683322, Final residual = 2.23735e-05, No Iterations 1
DILUPBiCG:  Solving for Uy, Initial residual = 0.00381973, Final residual = 0.000136167, No Iterations 1
DILUPBiCG:  Solving for Uz, Initial residual = 0.0142614, Final residual = 0.00044903, No Iterations 1
Pressure gradient source: uncorrected Ubar = 0.14124, pressure gradient = 0.000615037
GAMG:  Solving for p, Initial residual = 0.00922769, Final residual = 8.5721e-06, No Iterations 59
time step continuity errors : sum local = 1.73897e-11, global = -8.47358e-19, cumulative = -5.16732e-17
Pressure gradient source: uncorrected Ubar = 0.14124, pressure gradient = 0.000607955
DILUPBiCG:  Solving for omega, Initial residual = 9.18275e-06, Final residual = 6.49474e-07, No Iterations 1
DILUPBiCG:  Solving for k, Initial residual = 0.000740053, Final residual = 5.74623e-05, No Iterations 1
ExecutionTime = 18.61 s  ClockTime = 18 s

Time = 77

DILUPBiCG:  Solving for Ux, Initial residual = 0.00067544, Final residual = 2.21059e-05, No Iterations 1
DILUPBiCG:  Solving for Uy, Initial residual = 0.00379082, Final residual = 0.000134353, No Iterations 1
DILUPBiCG:  Solving for Uz, Initial residual = 0.0144309, Final residual = 0.000445399, No Iterations 1
Pressure gradient source: uncorrected Ubar = 0.14124, pressure gradient = 0.000609502
GAMG:  Solving for p, Initial residual = 0.0091464, Final residual = 8.3874e-06, No Iterations 59
time step continuity errors : sum local = 1.68549e-11, global = -2.63176e-18, cumulative = -5.4305e-17
Pressure gradient source: uncorrected Ubar = 0.14124, pressure gradient = 0.000602474
DILUPBiCG:  Solving for omega, Initial residual = 9.06563e-06, Final residual = 6.42543e-07, No Iterations 1
DILUPBiCG:  Solving for k, Initial residual = 0.000746137, Final residual = 5.80832e-05, No Iterations 1
ExecutionTime = 18.85 s  ClockTime = 18 s

Time = 78

DILUPBiCG:  Solving for Ux, Initial residual = 0.00066775, Final residual = 2.1844e-05, No Iterations 1
DILUPBiCG:  Solving for Uy, Initial residual = 0.00376336, Final residual = 0.000132661, No Iterations 1
DILUPBiCG:  Solving for Uz, Initial residual = 0.0143, Final residual = 0.000456707, No Iterations 1
Pressure gradient source: uncorrected Ubar = 0.14124, pressure gradient = 0.000604069
GAMG:  Solving for p, Initial residual = 0.00906404, Final residual = 8.20484e-06, No Iterations 59
time step continuity errors : sum local = 1.63351e-11, global = 6.13726e-19, cumulative = -5.36912e-17
Pressure gradient source: uncorrected Ubar = 0.14124, pressure gradient = 0.000597094
DILUPBiCG:  Solving for omega, Initial residual = 8.95018e-06, Final residual = 6.35991e-07, No Iterations 1
DILUPBiCG:  Solving for k, Initial residual = 0.000752182, Final residual = 5.87232e-05, No Iterations 1
ExecutionTime = 19.09 s  ClockTime = 19 s

Time = 79

DILUPBiCG:  Solving for Ux, Initial residual = 0.000660244, Final residual = 2.15876e-05, No Iterations 1
DILUPBiCG:  Solving for Uy, Initial residual = 0.00373748, Final residual = 0.000131078, No Iterations 1
DILUPBiCG:  Solving for Uz, Initial residual = 0.0144111, Final residual = 0.000478578, No Iterations 1
Pressure gradient source: uncorrected Ubar = 0.14124, pressure gradient = 0.000598735
GAMG:  Solving for p, Initial residual = 0.00898583, Final residual = 8.93827e-06, No Iterations 58
time step continuity errors : sum local = 1.76293e-11, global = -4.29217e-19, cumulative = -5.41204e-17
Pressure gradient source: uncorrected Ubar = 0.14124, pressure gradient = 0.000591811
DILUPBiCG:  Solving for omega, Initial residual = 8.83642e-06, Final residual = 6.29823e-07, No Iterations 1
DILUPBiCG:  Solving for k, Initial residual = 0.000758194, Final residual = 5.93751e-05, No Iterations 1
ExecutionTime = 19.31 s  ClockTime = 19 s

Time = 80

DILUPBiCG:  Solving for Ux, Initial residual = 0.000652941, Final residual = 2.13366e-05, No Iterations 1
DILUPBiCG:  Solving for Uy, Initial residual = 0.00371307, Final residual = 0.000129627, No Iterations 1
DILUPBiCG:  Solving for Uz, Initial residual = 0.0144541, Final residual = 0.000474241, No Iterations 1
Pressure gradient source: uncorrected Ubar = 0.14124, pressure gradient = 0.000593496
GAMG:  Solving for p, Initial residual = 0.00890883, Final residual = 8.75324e-06, No Iterations 58
time step continuity errors : sum local = 1.71039e-11, global = -4.57427e-19, cumulative = -5.45779e-17
Pressure gradient source: uncorrected Ubar = 0.14124, pressure gradient = 0.000586623
DILUPBiCG:  Solving for omega, Initial residual = 8.72434e-06, Final residual = 6.23656e-07, No Iterations 1
DILUPBiCG:  Solving for k, Initial residual = 0.000764542, Final residual = 6.00322e-05, No Iterations 1
ExecutionTime = 19.57 s  ClockTime = 19 s

Time = 81

DILUPBiCG:  Solving for Ux, Initial residual = 0.000645864, Final residual = 2.10909e-05, No Iterations 1
DILUPBiCG:  Solving for Uy, Initial residual = 0.00368984, Final residual = 0.000128259, No Iterations 1
DILUPBiCG:  Solving for Uz, Initial residual = 0.014219, Final residual = 0.000445864, No Iterations 1
Pressure gradient source: uncorrected Ubar = 0.14124, pressure gradient = 0.00058835
GAMG:  Solving for p, Initial residual = 0.0088345, Final residual = 8.56555e-06, No Iterations 58
time step continuity errors : sum local = 1.65811e-11, global = -1.43131e-18, cumulative = -5.60092e-17
Pressure gradient source: uncorrected Ubar = 0.14124, pressure gradient = 0.000581527
DILUPBiCG:  Solving for omega, Initial residual = 8.61392e-06, Final residual = 6.17569e-07, No Iterations 1
DILUPBiCG:  Solving for k, Initial residual = 0.000772084, Final residual = 6.0699e-05, No Iterations 1
ExecutionTime = 19.81 s  ClockTime = 19 s

Time = 82

DILUPBiCG:  Solving for Ux, Initial residual = 0.000638994, Final residual = 2.08501e-05, No Iterations 1
DILUPBiCG:  Solving for Uy, Initial residual = 0.00366829, Final residual = 0.000126958, No Iterations 1
DILUPBiCG:  Solving for Uz, Initial residual = 0.0141891, Final residual = 0.000447905, No Iterations 1
Pressure gradient source: uncorrected Ubar = 0.14124, pressure gradient = 0.000583294
GAMG:  Solving for p, Initial residual = 0.00875904, Final residual = 8.39218e-06, No Iterations 58
time step continuity errors : sum local = 1.60946e-11, global = 6.93943e-19, cumulative = -5.53152e-17
Pressure gradient source: uncorrected Ubar = 0.14124, pressure gradient = 0.000576519
[...]
DILUPBiCG:  Solving for k, Initial residual = 4.91427e-05, Final residual = 3.45598e-06, No Iterations 1
ExecutionTime = 1120.5 s  ClockTime = 1137 s

Time = 4156

DILUPBiCG:  Solving for Ux, Initial residual = 4.64051e-06, Final residual = 1.67969e-07, No Iterations 1
DILUPBiCG:  Solving for Uy, Initial residual = 0.000208163, Final residual = 7.73563e-06, No Iterations 1
DILUPBiCG:  Solving for Uz, Initial residual = 0.000956544, Final residual = 3.38399e-05, No Iterations 1
Pressure gradient source: uncorrected Ubar = 0.14124, pressure gradient = 6.88518e-05
GAMG:  Solving for p, Initial residual = 0.000771542, Final residual = 3.55087e-06, No Iterations 100
time step continuity errors : sum local = 2.57804e-13, global = 6.63484e-19, cumulative = -2.80103e-15
Pressure gradient source: uncorrected Ubar = 0.14124, pressure gradient = 6.89838e-05
DILUPBiCG:  Solving for omega, Initial residual = 8.75272e-07, Final residual = 8.75272e-07, No Iterations 0
DILUPBiCG:  Solving for k, Initial residual = 4.89663e-05, Final residual = 3.44041e-06, No Iterations 1
ExecutionTime = 1120.86 s  ClockTime = 1137 s

Time = 4157

DILUPBiCG:  Solving for Ux, Initial residual = 4.63824e-06, Final residual = 1.67833e-07, No Iterations 1
DILUPBiCG:  Solving for Uy, Initial residual = 0.000206486, Final residual = 7.43409e-06, No Iterations 1
DILUPBiCG:  Solving for Uz, Initial residual = 0.000958831, Final residual = 3.35084e-05, No Iterations 1
Pressure gradient source: uncorrected Ubar = 0.14124, pressure gradient = 6.88523e-05
GAMG:  Solving for p, Initial residual = 0.000673194, Final residual = 3.51806e-06, No Iterations 100
time step continuity errors : sum local = 2.57438e-13, global = -1.33437e-18, cumulative = -2.80237e-15
Pressure gradient source: uncorrected Ubar = 0.14124, pressure gradient = 6.89844e-05
DILUPBiCG:  Solving for omega, Initial residual = 8.7604e-07, Final residual = 8.7604e-07, No Iterations 0
DILUPBiCG:  Solving for k, Initial residual = 4.8795e-05, Final residual = 3.42509e-06, No Iterations 1
ExecutionTime = 1121.21 s  ClockTime = 1137 s

Time = 4158

DILUPBiCG:  Solving for Ux, Initial residual = 4.63599e-06, Final residual = 1.67702e-07, No Iterations 1
DILUPBiCG:  Solving for Uy, Initial residual = 0.000205074, Final residual = 7.1621e-06, No Iterations 1
DILUPBiCG:  Solving for Uz, Initial residual = 0.00093792, Final residual = 3.28789e-05, No Iterations 1
Pressure gradient source: uncorrected Ubar = 0.14124, pressure gradient = 6.88527e-05
GAMG:  Solving for p, Initial residual = 0.0006242, Final residual = 3.5927e-06, No Iterations 100
time step continuity errors : sum local = 2.62037e-13, global = 1.98135e-20, cumulative = -2.80235e-15
Pressure gradient source: uncorrected Ubar = 0.14124, pressure gradient = 6.89848e-05
DILUPBiCG:  Solving for omega, Initial residual = 8.76942e-07, Final residual = 8.76942e-07, No Iterations 0
DILUPBiCG:  Solving for k, Initial residual = 4.8629e-05, Final residual = 3.41025e-06, No Iterations 1
ExecutionTime = 1121.71 s  ClockTime = 1138 s

Time = 4159

DILUPBiCG:  Solving for Ux, Initial residual = 4.63374e-06, Final residual = 1.67578e-07, No Iterations 1
DILUPBiCG:  Solving for Uy, Initial residual = 0.000203803, Final residual = 6.96434e-06, No Iterations 1
DILUPBiCG:  Solving for Uz, Initial residual = 0.000954254, Final residual = 3.32145e-05, No Iterations 1
Pressure gradient source: uncorrected Ubar = 0.14124, pressure gradient = 6.8853e-05
GAMG:  Solving for p, Initial residual = 0.000604073, Final residual = 3.64488e-06, No Iterations 100
time step continuity errors : sum local = 2.61289e-13, global = 1.35608e-19, cumulative = -2.80221e-15
Pressure gradient source: uncorrected Ubar = 0.14124, pressure gradient = 6.89851e-05
DILUPBiCG:  Solving for omega, Initial residual = 8.77863e-07, Final residual = 8.77863e-07, No Iterations 0
DILUPBiCG:  Solving for k, Initial residual = 4.84693e-05, Final residual = 3.39589e-06, No Iterations 1
ExecutionTime = 1122.14 s  ClockTime = 1139 s

Time = 4160

DILUPBiCG:  Solving for Ux, Initial residual = 4.6315e-06, Final residual = 1.67458e-07, No Iterations 1
DILUPBiCG:  Solving for Uy, Initial residual = 0.000202636, Final residual = 6.82821e-06, No Iterations 1
DILUPBiCG:  Solving for Uz, Initial residual = 0.000946587, Final residual = 3.35255e-05, No Iterations 1
Pressure gradient source: uncorrected Ubar = 0.14124, pressure gradient = 6.88532e-05
GAMG:  Solving for p, Initial residual = 0.0005901, Final residual = 3.64304e-06, No Iterations 100
time step continuity errors : sum local = 2.62731e-13, global = -1.36361e-18, cumulative = -2.80357e-15
Pressure gradient source: uncorrected Ubar = 0.14124, pressure gradient = 6.89853e-05
DILUPBiCG:  Solving for omega, Initial residual = 8.78799e-07, Final residual = 8.78799e-07, No Iterations 0
DILUPBiCG:  Solving for k, Initial residual = 4.83163e-05, Final residual = 3.38209e-06, No Iterations 1
ExecutionTime = 1122.55 s  ClockTime = 1139 s

Time = 4161

DILUPBiCG:  Solving for Ux, Initial residual = 4.62927e-06, Final residual = 1.67344e-07, No Iterations 1
DILUPBiCG:  Solving for Uy, Initial residual = 0.000201849, Final residual = 6.71393e-06, No Iterations 1
DILUPBiCG:  Solving for Uz, Initial residual = 0.000929658, Final residual = 3.16584e-05, No Iterations 1
Pressure gradient source: uncorrected Ubar = 0.14124, pressure gradient = 6.88533e-05
GAMG:  Solving for p, Initial residual = 0.000561966, Final residual = 3.52845e-06, No Iterations 100
time step continuity errors : sum local = 2.58561e-13, global = 7.1255e-19, cumulative = -2.80286e-15
Pressure gradient source: uncorrected Ubar = 0.14124, pressure gradient = 6.89854e-05
DILUPBiCG:  Solving for omega, Initial residual = 8.79746e-07, Final residual = 8.79746e-07, No Iterations 0
DILUPBiCG:  Solving for k, Initial residual = 4.81743e-05, Final residual = 3.36942e-06, No Iterations 1
ExecutionTime = 1122.98 s  ClockTime = 1139 s

Time = 4162

DILUPBiCG:  Solving for Ux, Initial residual = 4.62704e-06, Final residual = 1.67234e-07, No Iterations 1
DILUPBiCG:  Solving for Uy, Initial residual = 0.000201236, Final residual = 6.6163e-06, No Iterations 1
DILUPBiCG:  Solving for Uz, Initial residual = 0.000941494, Final residual = 3.26253e-05, No Iterations 1
Pressure gradient source: uncorrected Ubar = 0.14124, pressure gradient = 6.88533e-05
GAMG:  Solving for p, Initial residual = 0.000529862, Final residual = 3.62828e-06, No Iterations 100
time step continuity errors : sum local = 2.60663e-13, global = -1.76057e-18, cumulative = -2.80462e-15
Pressure gradient source: uncorrected Ubar = 0.14124, pressure gradient = 6.89854e-05
DILUPBiCG:  Solving for omega, Initial residual = 8.807e-07, Final residual = 8.807e-07, No Iterations 0
DILUPBiCG:  Solving for k, Initial residual = 4.80684e-05, Final residual = 3.3626e-06, No Iterations 1
ExecutionTime = 1123.41 s  ClockTime = 1140 s

Time = 4163

DILUPBiCG:  Solving for Ux, Initial residual = 4.6248e-06, Final residual = 1.67127e-07, No Iterations 1
DILUPBiCG:  Solving for Uy, Initial residual = 0.000200882, Final residual = 6.5462e-06, No Iterations 1
DILUPBiCG:  Solving for Uz, Initial residual = 0.000933717, Final residual = 3.24026e-05, No Iterations 1
Pressure gradient source: uncorrected Ubar = 0.14124, pressure gradient = 6.88532e-05
GAMG:  Solving for p, Initial residual = 0.00049831, Final residual = 3.56131e-06, No Iterations 100
time step continuity errors : sum local = 2.54565e-13, global = -2.13696e-18, cumulative = -2.80676e-15
Pressure gradient source: uncorrected Ubar = 0.14124, pressure gradient = 6.89854e-05
DILUPBiCG:  Solving for omega, Initial residual = 8.81659e-07, Final residual = 8.81659e-07, No Iterations 0
DILUPBiCG:  Solving for k, Initial residual = 4.79732e-05, Final residual = 3.35756e-06, No Iterations 1
ExecutionTime = 1123.78 s  ClockTime = 1140 s

Time = 4164

DILUPBiCG:  Solving for Ux, Initial residual = 4.62257e-06, Final residual = 1.67024e-07, No Iterations 1
DILUPBiCG:  Solving for Uy, Initial residual = 0.000200528, Final residual = 6.4921e-06, No Iterations 1
DILUPBiCG:  Solving for Uz, Initial residual = 0.000951866, Final residual = 3.35369e-05, No Iterations 1
Pressure gradient source: uncorrected Ubar = 0.14124, pressure gradient = 6.88532e-05
GAMG:  Solving for p, Initial residual = 0.000470742, Final residual = 3.63397e-06, No Iterations 100
time step continuity errors : sum local = 2.66818e-13, global = -3.15111e-19, cumulative = -2.80707e-15
Pressure gradient source: uncorrected Ubar = 0.14124, pressure gradient = 6.89853e-05
DILUPBiCG:  Solving for omega, Initial residual = 8.82619e-07, Final residual = 8.82619e-07, No Iterations 0
DILUPBiCG:  Solving for k, Initial residual = 4.78809e-05, Final residual = 3.35299e-06, No Iterations 1
ExecutionTime = 1124.14 s  ClockTime = 1141 s

Time = 4165

DILUPBiCG:  Solving for Ux, Initial residual = 4.62034e-06, Final residual = 1.66924e-07, No Iterations 1
DILUPBiCG:  Solving for Uy, Initial residual = 0.00020012, Final residual = 6.45689e-06, No Iterations 1
DILUPBiCG:  Solving for Uz, Initial residual = 0.00095322, Final residual = 3.31249e-05, No Iterations 1
Pressure gradient source: uncorrected Ubar = 0.14124, pressure gradient = 6.8853e-05
GAMG:  Solving for p, Initial residual = 0.000439699, Final residual = 3.52958e-06, No Iterations 100
time step continuity errors : sum local = 2.60157e-13, global = -3.43148e-19, cumulative = -2.80742e-15
Pressure gradient source: uncorrected Ubar = 0.14124, pressure gradient = 6.89852e-05
DILUPBiCG:  Solving for omega, Initial residual = 8.83579e-07, Final residual = 8.83579e-07, No Iterations 0
DILUPBiCG:  Solving for k, Initial residual = 4.77888e-05, Final residual = 3.34843e-06, No Iterations 1
ExecutionTime = 1124.53 s  ClockTime = 1141 s

Time = 4166

DILUPBiCG:  Solving for Ux, Initial residual = 4.6181e-06, Final residual = 1.66826e-07, No Iterations 1
DILUPBiCG:  Solving for Uy, Initial residual = 0.000199586, Final residual = 6.45416e-06, No Iterations 1
DILUPBiCG:  Solving for Uz, Initial residual = 0.000958474, Final residual = 3.43963e-05, No Iterations 1
Pressure gradient source: uncorrected Ubar = 0.14124, pressure gradient = 6.88529e-05
GAMG:  Solving for p, Initial residual = 0.000423841, Final residual = 3.60631e-06, No Iterations 100
time step continuity errors : sum local = 2.57933e-13, global = -3.50558e-19, cumulative = -2.80777e-15
Pressure gradient source: uncorrected Ubar = 0.14124, pressure gradient = 6.8985e-05
DILUPBiCG:  Solving for omega, Initial residual = 8.84535e-07, Final residual = 8.84535e-07, No Iterations 0
DILUPBiCG:  Solving for k, Initial residual = 4.76968e-05, Final residual = 3.34375e-06, No Iterations 1
ExecutionTime = 1124.94 s  ClockTime = 1141 s

Time = 4167

DILUPBiCG:  Solving for Ux, Initial residual = 4.61585e-06, Final residual = 1.66731e-07, No Iterations 1
DILUPBiCG:  Solving for Uy, Initial residual = 0.0001993, Final residual = 6.49368e-06, No Iterations 1
DILUPBiCG:  Solving for Uz, Initial residual = 0.000942171, Final residual = 3.23455e-05, No Iterations 1
Pressure gradient source: uncorrected Ubar = 0.14124, pressure gradient = 6.88527e-05
GAMG:  Solving for p, Initial residual = 0.000403298, Final residual = 3.61879e-06, No Iterations 100
time step continuity errors : sum local = 2.55077e-13, global = -7.01643e-19, cumulative = -2.80847e-15
Pressure gradient source: uncorrected Ubar = 0.14124, pressure gradient = 6.89848e-05
DILUPBiCG:  Solving for omega, Initial residual = 8.85488e-07, Final residual = 8.85488e-07, No Iterations 0
DILUPBiCG:  Solving for k, Initial residual = 4.76049e-05, Final residual = 3.339e-06, No Iterations 1
ExecutionTime = 1125.4 s  ClockTime = 1142 s

Time = 4168

DILUPBiCG:  Solving for Ux, Initial residual = 4.6136e-06, Final residual = 1.66638e-07, No Iterations 1
DILUPBiCG:  Solving for Uy, Initial residual = 0.000198936, Final residual = 6.57705e-06, No Iterations 1
DILUPBiCG:  Solving for Uz, Initial residual = 0.000948777, Final residual = 3.36003e-05, No Iterations 1
Pressure gradient source: uncorrected Ubar = 0.14124, pressure gradient = 6.88525e-05
GAMG:  Solving for p, Initial residual = 0.000390391, Final residual = 3.56858e-06, No Iterations 100
time step continuity errors : sum local = 2.57269e-13, global = -1.69973e-18, cumulative = -2.81017e-15
Pressure gradient source: uncorrected Ubar = 0.14124, pressure gradient = 6.89846e-05
DILUPBiCG:  Solving for omega, Initial residual = 8.86435e-07, Final residual = 8.86435e-07, No Iterations 0
DILUPBiCG:  Solving for k, Initial residual = 4.75127e-05, Final residual = 3.33417e-06, No Iterations 1
ExecutionTime = 1125.78 s  ClockTime = 1142 s

Time = 4169

DILUPBiCG:  Solving for Ux, Initial residual = 4.61134e-06, Final residual = 1.66547e-07, No Iterations 1
DILUPBiCG:  Solving for Uy, Initial residual = 0.000198703, Final residual = 6.6993e-06, No Iterations 1
DILUPBiCG:  Solving for Uz, Initial residual = 0.000943709, Final residual = 3.35164e-05, No Iterations 1
Pressure gradient source: uncorrected Ubar = 0.14124, pressure gradient = 6.88523e-05
GAMG:  Solving for p, Initial residual = 0.000381422, Final residual = 3.58683e-06, No Iterations 100
time step continuity errors : sum local = 2.61221e-13, global = -1.68607e-18, cumulative = -2.81185e-15
Pressure gradient source: uncorrected Ubar = 0.14124, pressure gradient = 6.89843e-05
DILUPBiCG:  Solving for omega, Initial residual = 8.87375e-07, Final residual = 8.87375e-07, No Iterations 0
DILUPBiCG:  Solving for k, Initial residual = 4.74203e-05, Final residual = 3.32925e-06, No Iterations 1
ExecutionTime = 1126.19 s  ClockTime = 1143 s

Time = 4170

DILUPBiCG:  Solving for Ux, Initial residual = 4.60908e-06, Final residual = 1.66457e-07, No Iterations 1
DILUPBiCG:  Solving for Uy, Initial residual = 0.000198453, Final residual = 6.88589e-06, No Iterations 1
DILUPBiCG:  Solving for Uz, Initial residual = 0.0009427, Final residual = 3.33639e-05, No Iterations 1
Pressure gradient source: uncorrected Ubar = 0.14124, pressure gradient = 6.8852e-05
GAMG:  Solving for p, Initial residual = 0.000371121, Final residual = 3.50696e-06, No Iterations 100
time step continuity errors : sum local = 2.60842e-13, global = -1.49956e-18, cumulative = -2.81335e-15
Pressure gradient source: uncorrected Ubar = 0.14124, pressure gradient = 6.89841e-05
DILUPBiCG:  Solving for omega, Initial residual = 8.88308e-07, Final residual = 8.88308e-07, No Iterations 0
DILUPBiCG:  Solving for k, Initial residual = 4.73289e-05, Final residual = 3.32429e-06, No Iterations 1
ExecutionTime = 1126.56 s  ClockTime = 1143 s

Time = 4171

DILUPBiCG:  Solving for Ux, Initial residual = 4.6068e-06, Final residual = 1.66369e-07, No Iterations 1
DILUPBiCG:  Solving for Uy, Initial residual = 0.000198009, Final residual = 7.16104e-06, No Iterations 1
DILUPBiCG:  Solving for Uz, Initial residual = 0.00093824, Final residual = 3.26283e-05, No Iterations 1
Pressure gradient source: uncorrected Ubar = 0.14124, pressure gradient = 6.88518e-05
GAMG:  Solving for p, Initial residual = 0.000364963, Final residual = 3.58076e-06, No Iterations 100
time step continuity errors : sum local = 2.61634e-13, global = -2.11396e-18, cumulative = -2.81547e-15
Pressure gradient source: uncorrected Ubar = 0.14124, pressure gradient = 6.89838e-05
DILUPBiCG:  Solving for omega, Initial residual = 8.89232e-07, Final residual = 8.89232e-07, No Iterations 0
DILUPBiCG:  Solving for k, Initial residual = 4.72384e-05, Final residual = 3.31937e-06, No Iterations 1
ExecutionTime = 1126.94 s  ClockTime = 1144 s

Time = 4172

DILUPBiCG:  Solving for Ux, Initial residual = 4.60452e-06, Final residual = 1.66283e-07, No Iterations 1
DILUPBiCG:  Solving for Uy, Initial residual = 0.000197446, Final residual = 7.54608e-06, No Iterations 1
DILUPBiCG:  Solving for Uz, Initial residual = 0.000939306, Final residual = 3.36471e-05, No Iterations 1
Pressure gradient source: uncorrected Ubar = 0.14124, pressure gradient = 6.88516e-05
GAMG:  Solving for p, Initial residual = 0.000356371, Final residual = 3.63605e-06, No Iterations 100
time step continuity errors : sum local = 2.66655e-13, global = -2.08237e-18, cumulative = -2.81755e-15
Pressure gradient source: uncorrected Ubar = 0.14124, pressure gradient = 6.89835e-05
DILUPBiCG:  Solving for omega, Initial residual = 8.90148e-07, Final residual = 8.90148e-07, No Iterations 0
DILUPBiCG:  Solving for k, Initial residual = 4.7148e-05, Final residual = 3.3145e-06, No Iterations 1
ExecutionTime = 1127.31 s  ClockTime = 1144 s

Time = 4173

DILUPBiCG:  Solving for Ux, Initial residual = 4.60223e-06, Final residual = 1.66198e-07, No Iterations 1
DILUPBiCG:  Solving for Uy, Initial residual = 0.000196835, Final residual = 8.04943e-06, No Iterations 1
DILUPBiCG:  Solving for Uz, Initial residual = 0.000954207, Final residual = 3.23533e-05, No Iterations 1
Pressure gradient source: uncorrected Ubar = 0.14124, pressure gradient = 6.88513e-05
GAMG:  Solving for p, Initial residual = 0.000347139, Final residual = 3.50429e-06, No Iterations 100
time step continuity errors : sum local = 2.61068e-13, global = -3.89465e-19, cumulative = -2.81794e-15
Pressure gradient source: uncorrected Ubar = 0.14124, pressure gradient = 6.89833e-05
DILUPBiCG:  Solving for omega, Initial residual = 8.91054e-07, Final residual = 8.91054e-07, No Iterations 0
DILUPBiCG:  Solving for k, Initial residual = 4.70577e-05, Final residual = 3.30958e-06, No Iterations 1
ExecutionTime = 1127.67 s  ClockTime = 1144 s

Time = 4174

DILUPBiCG:  Solving for Ux, Initial residual = 4.59992e-06, Final residual = 1.66114e-07, No Iterations 1
DILUPBiCG:  Solving for Uy, Initial residual = 0.000196082, Final residual = 8.68286e-06, No Iterations 1
DILUPBiCG:  Solving for Uz, Initial residual = 0.000938983, Final residual = 3.29238e-05, No Iterations 1
Pressure gradient source: uncorrected Ubar = 0.14124, pressure gradient = 6.88511e-05
GAMG:  Solving for p, Initial residual = 0.000338954, Final residual = 3.65864e-06, No Iterations 100
time step continuity errors : sum local = 2.55351e-13, global = -1.72612e-18, cumulative = -2.81967e-15
Pressure gradient source: uncorrected Ubar = 0.14124, pressure gradient = 6.8983e-05
DILUPBiCG:  Solving for omega, Initial residual = 8.91951e-07, Final residual = 8.91951e-07, No Iterations 0
DILUPBiCG:  Solving for k, Initial residual = 4.69688e-05, Final residual = 3.30461e-06, No Iterations 1
ExecutionTime = 1128.07 s  ClockTime = 1145 s

Time = 4175

DILUPBiCG:  Solving for Ux, Initial residual = 4.59761e-06, Final residual = 1.66031e-07, No Iterations 1
DILUPBiCG:  Solving for Uy, Initial residual = 0.000194993, Final residual = 9.41613e-06, No Iterations 1
DILUPBiCG:  Solving for Uz, Initial residual = 0.000942717, Final residual = 3.22238e-05, No Iterations 1
Pressure gradient source: uncorrected Ubar = 0.14124, pressure gradient = 6.88509e-05
GAMG:  Solving for p, Initial residual = 0.000331283, Final residual = 3.58058e-06, No Iterations 100
time step continuity errors : sum local = 2.55935e-13, global = 4.73872e-19, cumulative = -2.81919e-15
Pressure gradient source: uncorrected Ubar = 0.14124, pressure gradient = 6.89827e-05
DILUPBiCG:  Solving for omega, Initial residual = 8.92838e-07, Final residual = 8.92838e-07, No Iterations 0
DILUPBiCG:  Solving for k, Initial residual = 4.68811e-05, Final residual = 3.29985e-06, No Iterations 1
ExecutionTime = 1128.46 s  ClockTime = 1145 s

Time = 4176

DILUPBiCG:  Solving for Ux, Initial residual = 4.59528e-06, Final residual = 1.65949e-07, No Iterations 1
DILUPBiCG:  Solving for Uy, Initial residual = 0.000193935, Final residual = 1.0351e-05, No Iterations 1
DILUPBiCG:  Solving for Uz, Initial residual = 0.000948876, Final residual = 3.36464e-05, No Iterations 1
Pressure gradient source: uncorrected Ubar = 0.14124, pressure gradient = 6.88507e-05
